# File generated by Flopy version 3.3.7 on 06/01/2023 at 12:15:40.
BEGIN options
END options

BEGIN dimensions
  MAXBOUND  25
END dimensions

BEGIN period  1
  1 1 1       1.00000000
  2 1 1       1.00000000
  3 1 1       1.00000000
  4 1 1       1.00000000
  5 1 1       1.00000000
  1 2 1       1.00000000
  2 2 1       1.00000000
  3 2 1       1.00000000
  4 2 1       1.00000000
  5 2 1       1.00000000
  1 3 1       1.00000000
  2 3 1       1.00000000
  3 3 1       1.00000000
  4 3 1       1.00000000
  5 3 1       1.00000000
  1 4 1       1.00000000
  2 4 1       1.00000000
  3 4 1       1.00000000
  4 4 1       1.00000000
  5 4 1       1.00000000
  1 5 1       1.00000000
  2 5 1       1.00000000
  3 5 1       1.00000000
  4 5 1       1.00000000
  5 5 1       1.00000000
END period  1

