# File generated by Flopy version 3.3.7 on 06/01/2023 at 12:15:40.
BEGIN options
  SAVE_FLOWS
END options

BEGIN packages
  DIS6  leftmodel.dis  dis
  IC6  leftmodel.ic  ic
  NPF6  leftmodel.npf  npf
  CHD6  leftmodel.chd  chd_0
  OC6  leftmodel.oc  oc
END packages

