# File generated by Flopy version 3.3.7 on 06/01/2023 at 12:15:40.
BEGIN options
  auxiliary  ANGLDEGX  CDIST
END options

BEGIN dimensions
  NEXG  25
END dimensions

BEGIN exchangedata
  1 1 5  1 1 1  1      50.00000000      50.00000000     100.00000000       0.00000000     100.00000000
  2 1 5  2 1 1  1      50.00000000      50.00000000     100.00000000       0.00000000     100.00000000
  3 1 5  3 1 1  1      50.00000000      50.00000000     100.00000000       0.00000000     100.00000000
  4 1 5  4 1 1  1      50.00000000      50.00000000     100.00000000       0.00000000     100.00000000
  5 1 5  5 1 1  1      50.00000000      50.00000000     100.00000000       0.00000000     100.00000000
  1 2 5  1 2 1  1      50.00000000      50.00000000     100.00000000       0.00000000     100.00000000
  2 2 5  2 2 1  1      50.00000000      50.00000000     100.00000000       0.00000000     100.00000000
  3 2 5  3 2 1  1      50.00000000      50.00000000     100.00000000       0.00000000     100.00000000
  4 2 5  4 2 1  1      50.00000000      50.00000000     100.00000000       0.00000000     100.00000000
  5 2 5  5 2 1  1      50.00000000      50.00000000     100.00000000       0.00000000     100.00000000
  1 3 5  1 3 1  1      50.00000000      50.00000000     100.00000000       0.00000000     100.00000000
  2 3 5  2 3 1  1      50.00000000      50.00000000     100.00000000       0.00000000     100.00000000
  3 3 5  3 3 1  1      50.00000000      50.00000000     100.00000000       0.00000000     100.00000000
  4 3 5  4 3 1  1      50.00000000      50.00000000     100.00000000       0.00000000     100.00000000
  5 3 5  5 3 1  1      50.00000000      50.00000000     100.00000000       0.00000000     100.00000000
  1 4 5  1 4 1  1      50.00000000      50.00000000     100.00000000       0.00000000     100.00000000
  2 4 5  2 4 1  1      50.00000000      50.00000000     100.00000000       0.00000000     100.00000000
  3 4 5  3 4 1  1      50.00000000      50.00000000     100.00000000       0.00000000     100.00000000
  4 4 5  4 4 1  1      50.00000000      50.00000000     100.00000000       0.00000000     100.00000000
  5 4 5  5 4 1  1      50.00000000      50.00000000     100.00000000       0.00000000     100.00000000
  1 5 5  1 5 1  1      50.00000000      50.00000000     100.00000000       0.00000000     100.00000000
  2 5 5  2 5 1  1      50.00000000      50.00000000     100.00000000       0.00000000     100.00000000
  3 5 5  3 5 1  1      50.00000000      50.00000000     100.00000000       0.00000000     100.00000000
  4 5 5  4 5 1  1      50.00000000      50.00000000     100.00000000       0.00000000     100.00000000
  5 5 5  5 5 1  1      50.00000000      50.00000000     100.00000000       0.00000000     100.00000000
END exchangedata

