# File generated by Flopy version 3.3.7 on 06/01/2023 at 12:15:40.
BEGIN options
  XORIGIN     500.00000000
  YORIGIN       0.00000000
END options

BEGIN dimensions
  NLAY  5
  NROW  5
  NCOL  5
END dimensions

BEGIN griddata
  delr
    CONSTANT     100.00000000
  delc
    CONSTANT     100.00000000
  top
    CONSTANT       0.00000000
  botm  LAYERED
    CONSTANT    -100.00000000
    CONSTANT    -200.00000000
    CONSTANT    -300.00000000
    CONSTANT    -400.00000000
    CONSTANT    -500.00000000
END griddata

