# File generated by Flopy version 3.3.7 on 07/11/2023 at 18:13:40.
BEGIN options
END options

BEGIN timing
  TDIS6  sim.tdis
END timing

BEGIN models
  gwf6  synthetic_desert.nam  synthetic_desert
END models

BEGIN exchanges
END exchanges

BEGIN solutiongroup  1
  ims6  sim.ims  synthetic_desert
END solutiongroup  1

