# File generated by Flopy version 3.3.7 on 07/12/2023 at 08:47:43.
BEGIN options
END options

BEGIN timing
  TDIS6  sim.tdis
END timing

BEGIN models
  gwf6  synth_desert.nam  synth_desert
END models

BEGIN exchanges
END exchanges

BEGIN solutiongroup  1
  ims6  sim.ims  synth_desert
END solutiongroup  1

