# File generated by Flopy version 3.3.7 on 07/12/2023 at 08:47:43.
BEGIN options
  COMPLEXITY  complex
END options

