# File generated by Flopy version 3.3.7 on 07/11/2023 at 18:13:40.
BEGIN options
  COMPLEXITY  complex
END options

