# File generated by Flopy version 3.3.7 on 07/11/2023 at 18:13:40.
BEGIN options
  TIME_UNITS  days
END options

BEGIN dimensions
  NPER  1
END dimensions

BEGIN perioddata
     365.00000000  365       1.00000000
END perioddata

