# File generated by Flopy version 3.3.7 on 07/12/2023 at 08:47:44.
BEGIN options
END options

BEGIN dimensions
  MAXBOUND  876
END dimensions

BEGIN period  1
  1 36 1     880.87200000       0.01500000
  1 38 2     880.87200000       0.01500000
  1 40 3     880.87200000       0.01500000
  1 41 4     880.87200000       0.01500000
  1 42 4     880.87200000       0.01500000
  1 43 5     880.87200000       0.01500000
  1 44 5     880.87200000       0.01500000
  1 45 6     880.87200000       0.01500000
  1 46 6     880.87200000       0.01500000
  1 47 7     880.87200000       0.01500000
  1 48 7     880.87200000       0.01500000
  1 48 8     880.87200000       0.01500000
  1 49 8     880.87200000       0.01500000
  1 50 8     880.87200000       0.01500000
  1 50 9     880.87200000       0.01500000
  1 51 9     880.87200000       0.01500000
  1 52 9     880.87200000       0.01500000
  1 52 10     880.87200000       0.01500000
  1 53 10     880.87200000       0.01500000
  1 54 10     880.87200000       0.01500000
  1 54 11     880.87200000       0.01500000
  1 55 11     880.87200000       0.01500000
  1 56 11     880.87200000       0.01500000
  1 56 12     880.87200000       0.01500000
  1 57 12     880.87200000       0.01500000
  1 57 13     880.87200000       0.01500000
  1 58 13     880.87200000       0.01500000
  1 59 13     880.87200000       0.01500000
  1 59 14     880.87200000       0.01500000
  1 60 14     880.87200000       0.01500000
  1 61 14     880.87200000       0.01500000
  1 61 15     880.87200000       0.01500000
  1 62 15     880.87200000       0.01500000
  1 63 16     880.87200000       0.01500000
  1 64 16     880.87200000       0.01500000
  1 64 17     880.87200000       0.01500000
  1 65 17     880.87200000       0.01500000
  1 66 17     880.87200000       0.01500000
  1 66 18     880.87200000       0.01500000
  1 67 18     880.87200000       0.01500000
  1 68 19     880.87200000       0.01500000
  1 69 19     880.87200000       0.01500000
  1 69 20     880.87200000       0.01500000
  1 70 20     880.87200000       0.01500000
  1 70 21     880.87200000       0.01500000
  1 71 21     880.87200000       0.01500000
  1 71 22     880.87200000       0.01500000
  1 72 22     880.87200000       0.01500000
  1 72 23     880.87200000       0.01500000
  1 73 24     880.87200000       0.01500000
  1 74 25     880.87200000       0.01500000
  1 75 26     880.87200000       0.01500000
  1 76 27     880.87200000       0.01500000
  1 77 28     880.87200000       0.01500000
  1 77 29     880.87200000       0.01500000
  1 78 29     880.87200000       0.01500000
  1 78 30     880.87200000       0.01500000
  1 79 30     880.87200000       0.01500000
  1 79 31     880.87200000       0.01500000
  1 80 31     880.87200000       0.01500000
  1 80 32     880.87200000       0.01500000
  1 81 32     880.87200000       0.01500000
  1 81 33     880.87200000       0.01500000
  1 82 33     880.87200000       0.01500000
  1 82 34     880.87200000       0.01500000
  1 82 35     880.87200000       0.01500000
  1 83 35     880.87200000       0.01500000
  1 83 36     880.87200000       0.01500000
  1 84 36     880.87200000       0.01500000
  1 84 37     880.87200000       0.01500000
  1 84 38     880.87200000       0.01500000
  1 85 38     880.87200000       0.01500000
  1 85 39     880.87200000       0.01500000
  1 86 40     880.87200000       0.01500000
  1 86 41     880.87200000       0.01500000
  1 87 42     880.87200000       0.01500000
  1 87 43     880.87200000       0.01500000
  1 88 44     880.87200000       0.01500000
  1 88 45     880.87200000       0.01500000
  1 89 46     880.87200000       0.01500000
  1 89 47     880.87200000       0.01500000
  1 90 48     880.87200000       0.01500000
  1 90 49     880.87200000       0.01500000
  1 91 50     880.87200000       0.01500000
  1 92 51     880.87200000       0.01500000
  1 93 51     880.87200000       0.01500000
  1 93 52     880.87200000       0.01500000
  1 94 52     880.87200000       0.01500000
  1 95 53     880.87200000       0.01500000
  1 96 53     880.87200000       0.01500000
  1 97 54     880.87200000       0.01500000
  1 98 55     880.87200000       0.01500000
  1 99 55     880.87200000       0.01500000
  1 100 56     880.87200000       0.01500000
  1 101 57     880.87200000       0.01500000
  1 102 57     880.87200000       0.01500000
  1 103 58     880.87200000       0.01500000
  2 36 1     880.87200000       0.01500000
  2 38 2     880.87200000       0.01500000
  2 40 3     880.87200000       0.01500000
  2 41 4     880.87200000       0.01500000
  2 42 4     880.87200000       0.01500000
  2 43 5     880.87200000       0.01500000
  2 44 5     880.87200000       0.01500000
  2 45 6     880.87200000       0.01500000
  2 46 6     880.87200000       0.01500000
  2 47 7     880.87200000       0.01500000
  2 48 7     880.87200000       0.01500000
  2 48 8     880.87200000       0.01500000
  2 49 8     880.87200000       0.01500000
  2 50 8     880.87200000       0.01500000
  2 50 9     880.87200000       0.01500000
  2 51 9     880.87200000       0.01500000
  2 52 9     880.87200000       0.01500000
  2 52 10     880.87200000       0.01500000
  2 53 10     880.87200000       0.01500000
  2 54 10     880.87200000       0.01500000
  2 54 11     880.87200000       0.01500000
  2 55 11     880.87200000       0.01500000
  2 56 11     880.87200000       0.01500000
  2 56 12     880.87200000       0.01500000
  2 57 12     880.87200000       0.01500000
  2 57 13     880.87200000       0.01500000
  2 58 13     880.87200000       0.01500000
  2 59 13     880.87200000       0.01500000
  2 59 14     880.87200000       0.01500000
  2 60 14     880.87200000       0.01500000
  2 61 14     880.87200000       0.01500000
  2 61 15     880.87200000       0.01500000
  2 62 15     880.87200000       0.01500000
  2 63 16     880.87200000       0.01500000
  2 64 16     880.87200000       0.01500000
  2 64 17     880.87200000       0.01500000
  2 65 17     880.87200000       0.01500000
  2 66 17     880.87200000       0.01500000
  2 66 18     880.87200000       0.01500000
  2 67 18     880.87200000       0.01500000
  2 68 19     880.87200000       0.01500000
  2 69 19     880.87200000       0.01500000
  2 69 20     880.87200000       0.01500000
  2 70 20     880.87200000       0.01500000
  2 70 21     880.87200000       0.01500000
  2 71 21     880.87200000       0.01500000
  2 71 22     880.87200000       0.01500000
  2 72 22     880.87200000       0.01500000
  2 72 23     880.87200000       0.01500000
  2 73 24     880.87200000       0.01500000
  2 74 25     880.87200000       0.01500000
  2 75 26     880.87200000       0.01500000
  2 76 27     880.87200000       0.01500000
  2 77 28     880.87200000       0.01500000
  2 77 29     880.87200000       0.01500000
  2 78 29     880.87200000       0.01500000
  2 78 30     880.87200000       0.01500000
  2 79 30     880.87200000       0.01500000
  2 79 31     880.87200000       0.01500000
  2 80 31     880.87200000       0.01500000
  2 80 32     880.87200000       0.01500000
  2 81 32     880.87200000       0.01500000
  2 81 33     880.87200000       0.01500000
  2 82 33     880.87200000       0.01500000
  2 82 34     880.87200000       0.01500000
  2 82 35     880.87200000       0.01500000
  2 83 35     880.87200000       0.01500000
  2 83 36     880.87200000       0.01500000
  2 84 36     880.87200000       0.01500000
  2 84 37     880.87200000       0.01500000
  2 84 38     880.87200000       0.01500000
  2 85 38     880.87200000       0.01500000
  2 85 39     880.87200000       0.01500000
  2 86 40     880.87200000       0.01500000
  2 86 41     880.87200000       0.01500000
  2 87 42     880.87200000       0.01500000
  2 87 43     880.87200000       0.01500000
  2 88 44     880.87200000       0.01500000
  2 88 45     880.87200000       0.01500000
  2 89 46     880.87200000       0.01500000
  2 89 47     880.87200000       0.01500000
  2 90 48     880.87200000       0.01500000
  2 90 49     880.87200000       0.01500000
  2 91 50     880.87200000       0.01500000
  2 92 51     880.87200000       0.01500000
  2 93 51     880.87200000       0.01500000
  2 93 52     880.87200000       0.01500000
  2 94 52     880.87200000       0.01500000
  2 95 53     880.87200000       0.01500000
  2 96 53     880.87200000       0.01500000
  2 97 54     880.87200000       0.01500000
  2 98 55     880.87200000       0.01500000
  2 99 55     880.87200000       0.01500000
  2 100 56     880.87200000       0.01500000
  2 101 57     880.87200000       0.01500000
  2 102 57     880.87200000       0.01500000
  2 103 58     880.87200000       0.01500000
  3 36 1     880.87200000       0.01500000
  3 38 2     880.87200000       0.01500000
  3 40 3     880.87200000       0.01500000
  3 41 4     880.87200000       0.01500000
  3 42 4     880.87200000       0.01500000
  3 43 5     880.87200000       0.01500000
  3 44 5     880.87200000       0.01500000
  3 45 6     880.87200000       0.01500000
  3 46 6     880.87200000       0.01500000
  3 47 7     880.87200000       0.01500000
  3 48 7     880.87200000       0.01500000
  3 48 8     880.87200000       0.01500000
  3 49 8     880.87200000       0.01500000
  3 50 8     880.87200000       0.01500000
  3 50 9     880.87200000       0.01500000
  3 51 9     880.87200000       0.01500000
  3 52 9     880.87200000       0.01500000
  3 52 10     880.87200000       0.01500000
  3 53 10     880.87200000       0.01500000
  3 54 10     880.87200000       0.01500000
  3 54 11     880.87200000       0.01500000
  3 55 11     880.87200000       0.01500000
  3 56 11     880.87200000       0.01500000
  3 56 12     880.87200000       0.01500000
  3 57 12     880.87200000       0.01500000
  3 57 13     880.87200000       0.01500000
  3 58 13     880.87200000       0.01500000
  3 59 13     880.87200000       0.01500000
  3 59 14     880.87200000       0.01500000
  3 60 14     880.87200000       0.01500000
  3 61 14     880.87200000       0.01500000
  3 61 15     880.87200000       0.01500000
  3 62 15     880.87200000       0.01500000
  3 63 16     880.87200000       0.01500000
  3 64 16     880.87200000       0.01500000
  3 64 17     880.87200000       0.01500000
  3 65 17     880.87200000       0.01500000
  3 66 17     880.87200000       0.01500000
  3 66 18     880.87200000       0.01500000
  3 67 18     880.87200000       0.01500000
  3 68 19     880.87200000       0.01500000
  3 69 19     880.87200000       0.01500000
  3 69 20     880.87200000       0.01500000
  3 70 20     880.87200000       0.01500000
  3 70 21     880.87200000       0.01500000
  3 71 21     880.87200000       0.01500000
  3 71 22     880.87200000       0.01500000
  3 72 22     880.87200000       0.01500000
  3 72 23     880.87200000       0.01500000
  3 73 24     880.87200000       0.01500000
  3 74 25     880.87200000       0.01500000
  3 75 26     880.87200000       0.01500000
  3 76 27     880.87200000       0.01500000
  3 77 28     880.87200000       0.01500000
  3 77 29     880.87200000       0.01500000
  3 78 29     880.87200000       0.01500000
  3 78 30     880.87200000       0.01500000
  3 79 30     880.87200000       0.01500000
  3 79 31     880.87200000       0.01500000
  3 80 31     880.87200000       0.01500000
  3 80 32     880.87200000       0.01500000
  3 81 32     880.87200000       0.01500000
  3 81 33     880.87200000       0.01500000
  3 82 33     880.87200000       0.01500000
  3 82 34     880.87200000       0.01500000
  3 82 35     880.87200000       0.01500000
  3 83 35     880.87200000       0.01500000
  3 83 36     880.87200000       0.01500000
  3 84 36     880.87200000       0.01500000
  3 84 37     880.87200000       0.01500000
  3 84 38     880.87200000       0.01500000
  3 85 38     880.87200000       0.01500000
  3 85 39     880.87200000       0.01500000
  3 86 40     880.87200000       0.01500000
  3 86 41     880.87200000       0.01500000
  3 87 42     880.87200000       0.01500000
  3 87 43     880.87200000       0.01500000
  3 88 44     880.87200000       0.01500000
  3 88 45     880.87200000       0.01500000
  3 89 46     880.87200000       0.01500000
  3 89 47     880.87200000       0.01500000
  3 90 48     880.87200000       0.01500000
  3 90 49     880.87200000       0.01500000
  3 91 50     880.87200000       0.01500000
  3 92 51     880.87200000       0.01500000
  3 93 51     880.87200000       0.01500000
  3 93 52     880.87200000       0.01500000
  3 94 52     880.87200000       0.01500000
  3 95 53     880.87200000       0.01500000
  3 96 53     880.87200000       0.01500000
  3 97 54     880.87200000       0.01500000
  3 98 55     880.87200000       0.01500000
  3 99 55     880.87200000       0.01500000
  3 100 56     880.87200000       0.01500000
  3 101 57     880.87200000       0.01500000
  3 102 57     880.87200000       0.01500000
  3 103 58     880.87200000       0.01500000
  4 36 1     880.87200000       0.01500000
  4 38 2     880.87200000       0.01500000
  4 40 3     880.87200000       0.01500000
  4 41 4     880.87200000       0.01500000
  4 42 4     880.87200000       0.01500000
  4 43 5     880.87200000       0.01500000
  4 44 5     880.87200000       0.01500000
  4 45 6     880.87200000       0.01500000
  4 46 6     880.87200000       0.01500000
  4 47 7     880.87200000       0.01500000
  4 48 7     880.87200000       0.01500000
  4 48 8     880.87200000       0.01500000
  4 49 8     880.87200000       0.01500000
  4 50 8     880.87200000       0.01500000
  4 50 9     880.87200000       0.01500000
  4 51 9     880.87200000       0.01500000
  4 52 9     880.87200000       0.01500000
  4 52 10     880.87200000       0.01500000
  4 53 10     880.87200000       0.01500000
  4 54 10     880.87200000       0.01500000
  4 54 11     880.87200000       0.01500000
  4 55 11     880.87200000       0.01500000
  4 56 11     880.87200000       0.01500000
  4 56 12     880.87200000       0.01500000
  4 57 12     880.87200000       0.01500000
  4 57 13     880.87200000       0.01500000
  4 58 13     880.87200000       0.01500000
  4 59 13     880.87200000       0.01500000
  4 59 14     880.87200000       0.01500000
  4 60 14     880.87200000       0.01500000
  4 61 14     880.87200000       0.01500000
  4 61 15     880.87200000       0.01500000
  4 62 15     880.87200000       0.01500000
  4 63 16     880.87200000       0.01500000
  4 64 16     880.87200000       0.01500000
  4 64 17     880.87200000       0.01500000
  4 65 17     880.87200000       0.01500000
  4 66 17     880.87200000       0.01500000
  4 66 18     880.87200000       0.01500000
  4 67 18     880.87200000       0.01500000
  4 68 19     880.87200000       0.01500000
  4 69 19     880.87200000       0.01500000
  4 69 20     880.87200000       0.01500000
  4 70 20     880.87200000       0.01500000
  4 70 21     880.87200000       0.01500000
  4 71 21     880.87200000       0.01500000
  4 71 22     880.87200000       0.01500000
  4 72 22     880.87200000       0.01500000
  4 72 23     880.87200000       0.01500000
  4 73 24     880.87200000       0.01500000
  4 74 25     880.87200000       0.01500000
  4 75 26     880.87200000       0.01500000
  4 76 27     880.87200000       0.01500000
  4 77 28     880.87200000       0.01500000
  4 77 29     880.87200000       0.01500000
  4 78 29     880.87200000       0.01500000
  4 78 30     880.87200000       0.01500000
  4 79 30     880.87200000       0.01500000
  4 79 31     880.87200000       0.01500000
  4 80 31     880.87200000       0.01500000
  4 80 32     880.87200000       0.01500000
  4 81 32     880.87200000       0.01500000
  4 81 33     880.87200000       0.01500000
  4 82 33     880.87200000       0.01500000
  4 82 34     880.87200000       0.01500000
  4 82 35     880.87200000       0.01500000
  4 83 35     880.87200000       0.01500000
  4 83 36     880.87200000       0.01500000
  4 84 36     880.87200000       0.01500000
  4 84 37     880.87200000       0.01500000
  4 84 38     880.87200000       0.01500000
  4 85 38     880.87200000       0.01500000
  4 85 39     880.87200000       0.01500000
  4 86 40     880.87200000       0.01500000
  4 86 41     880.87200000       0.01500000
  4 87 42     880.87200000       0.01500000
  4 87 43     880.87200000       0.01500000
  4 88 44     880.87200000       0.01500000
  4 88 45     880.87200000       0.01500000
  4 89 46     880.87200000       0.01500000
  4 89 47     880.87200000       0.01500000
  4 90 48     880.87200000       0.01500000
  4 90 49     880.87200000       0.01500000
  4 91 50     880.87200000       0.01500000
  4 92 51     880.87200000       0.01500000
  4 93 51     880.87200000       0.01500000
  4 93 52     880.87200000       0.01500000
  4 94 52     880.87200000       0.01500000
  4 95 53     880.87200000       0.01500000
  4 96 53     880.87200000       0.01500000
  4 97 54     880.87200000       0.01500000
  4 98 55     880.87200000       0.01500000
  4 99 55     880.87200000       0.01500000
  4 100 56     880.87200000       0.01500000
  4 101 57     880.87200000       0.01500000
  4 102 57     880.87200000       0.01500000
  4 103 58     880.87200000       0.01500000
  1 1 36     868.68000000       0.01500000
  1 1 37     868.68000000       0.01500000
  1 1 38     868.68000000       0.01500000
  1 1 39     868.68000000       0.01500000
  1 1 40     868.68000000       0.01500000
  1 1 41     868.68000000       0.01500000
  1 1 42     868.68000000       0.01500000
  1 1 43     868.68000000       0.01500000
  1 1 44     868.68000000       0.01500000
  1 1 45     868.68000000       0.01500000
  1 1 46     868.68000000       0.01500000
  1 1 47     868.68000000       0.01500000
  1 1 48     868.68000000       0.01500000
  1 1 49     868.68000000       0.01500000
  1 1 50     868.68000000       0.01500000
  1 1 51     868.68000000       0.01500000
  1 1 52     868.68000000       0.01500000
  1 1 53     868.68000000       0.01500000
  1 1 54     868.68000000       0.01500000
  1 1 55     868.68000000       0.01500000
  1 1 56     868.68000000       0.01500000
  1 1 57     868.68000000       0.01500000
  1 1 58     868.68000000       0.01500000
  1 1 59     868.68000000       0.01500000
  1 1 60     868.68000000       0.01500000
  1 1 61     868.68000000       0.01500000
  1 1 62     868.68000000       0.01500000
  1 1 63     868.68000000       0.01500000
  1 1 64     868.68000000       0.01500000
  1 1 65     868.68000000       0.01500000
  1 1 66     868.68000000       0.01500000
  1 1 67     868.68000000       0.01500000
  1 1 68     868.68000000       0.01500000
  1 1 69     868.68000000       0.01500000
  1 1 70     868.68000000       0.01500000
  2 1 36     868.68000000       0.01500000
  2 1 37     868.68000000       0.01500000
  2 1 38     868.68000000       0.01500000
  2 1 39     868.68000000       0.01500000
  2 1 40     868.68000000       0.01500000
  2 1 41     868.68000000       0.01500000
  2 1 42     868.68000000       0.01500000
  2 1 43     868.68000000       0.01500000
  2 1 44     868.68000000       0.01500000
  2 1 45     868.68000000       0.01500000
  2 1 46     868.68000000       0.01500000
  2 1 47     868.68000000       0.01500000
  2 1 48     868.68000000       0.01500000
  2 1 49     868.68000000       0.01500000
  2 1 50     868.68000000       0.01500000
  2 1 51     868.68000000       0.01500000
  2 1 52     868.68000000       0.01500000
  2 1 53     868.68000000       0.01500000
  2 1 54     868.68000000       0.01500000
  2 1 55     868.68000000       0.01500000
  2 1 56     868.68000000       0.01500000
  2 1 57     868.68000000       0.01500000
  2 1 58     868.68000000       0.01500000
  2 1 59     868.68000000       0.01500000
  2 1 60     868.68000000       0.01500000
  2 1 61     868.68000000       0.01500000
  2 1 62     868.68000000       0.01500000
  2 1 63     868.68000000       0.01500000
  2 1 64     868.68000000       0.01500000
  2 1 65     868.68000000       0.01500000
  2 1 66     868.68000000       0.01500000
  2 1 67     868.68000000       0.01500000
  2 1 68     868.68000000       0.01500000
  2 1 69     868.68000000       0.01500000
  2 1 70     868.68000000       0.01500000
  3 1 36     868.68000000       0.01500000
  3 1 37     868.68000000       0.01500000
  3 1 38     868.68000000       0.01500000
  3 1 39     868.68000000       0.01500000
  3 1 40     868.68000000       0.01500000
  3 1 41     868.68000000       0.01500000
  3 1 42     868.68000000       0.01500000
  3 1 43     868.68000000       0.01500000
  3 1 44     868.68000000       0.01500000
  3 1 45     868.68000000       0.01500000
  3 1 46     868.68000000       0.01500000
  3 1 47     868.68000000       0.01500000
  3 1 48     868.68000000       0.01500000
  3 1 49     868.68000000       0.01500000
  3 1 50     868.68000000       0.01500000
  3 1 51     868.68000000       0.01500000
  3 1 52     868.68000000       0.01500000
  3 1 53     868.68000000       0.01500000
  3 1 54     868.68000000       0.01500000
  3 1 55     868.68000000       0.01500000
  3 1 56     868.68000000       0.01500000
  3 1 57     868.68000000       0.01500000
  3 1 58     868.68000000       0.01500000
  3 1 59     868.68000000       0.01500000
  3 1 60     868.68000000       0.01500000
  3 1 61     868.68000000       0.01500000
  3 1 62     868.68000000       0.01500000
  3 1 63     868.68000000       0.01500000
  3 1 64     868.68000000       0.01500000
  3 1 65     868.68000000       0.01500000
  3 1 66     868.68000000       0.01500000
  3 1 67     868.68000000       0.01500000
  3 1 68     868.68000000       0.01500000
  3 1 69     868.68000000       0.01500000
  3 1 70     868.68000000       0.01500000
  4 1 36     868.68000000       0.01500000
  4 1 37     868.68000000       0.01500000
  4 1 38     868.68000000       0.01500000
  4 1 39     868.68000000       0.01500000
  4 1 40     868.68000000       0.01500000
  4 1 41     868.68000000       0.01500000
  4 1 42     868.68000000       0.01500000
  4 1 43     868.68000000       0.01500000
  4 1 44     868.68000000       0.01500000
  4 1 45     868.68000000       0.01500000
  4 1 46     868.68000000       0.01500000
  4 1 47     868.68000000       0.01500000
  4 1 48     868.68000000       0.01500000
  4 1 49     868.68000000       0.01500000
  4 1 50     868.68000000       0.01500000
  4 1 51     868.68000000       0.01500000
  4 1 52     868.68000000       0.01500000
  4 1 53     868.68000000       0.01500000
  4 1 54     868.68000000       0.01500000
  4 1 55     868.68000000       0.01500000
  4 1 56     868.68000000       0.01500000
  4 1 57     868.68000000       0.01500000
  4 1 58     868.68000000       0.01500000
  4 1 59     868.68000000       0.01500000
  4 1 60     868.68000000       0.01500000
  4 1 61     868.68000000       0.01500000
  4 1 62     868.68000000       0.01500000
  4 1 63     868.68000000       0.01500000
  4 1 64     868.68000000       0.01500000
  4 1 65     868.68000000       0.01500000
  4 1 66     868.68000000       0.01500000
  4 1 67     868.68000000       0.01500000
  4 1 68     868.68000000       0.01500000
  4 1 69     868.68000000       0.01500000
  4 1 70     868.68000000       0.01500000
  1 48 84     874.77600000       0.75000000
  1 49 84     874.77600000       0.75000000
  1 49 85     874.77600000       0.75000000
  1 50 85     874.77600000       0.75000000
  1 51 85     874.77600000       0.75000000
  1 51 86     874.77600000       0.75000000
  1 52 86     874.77600000       0.75000000
  1 52 87     874.77600000       0.75000000
  1 53 87     874.77600000       0.75000000
  1 53 88     874.77600000       0.75000000
  1 54 88     874.77600000       0.75000000
  1 55 88     874.77600000       0.75000000
  1 55 89     874.77600000       0.75000000
  1 56 89     874.77600000       0.75000000
  1 56 90     874.77600000       0.75000000
  1 57 90     874.77600000       0.75000000
  1 58 90     874.77600000       0.75000000
  1 58 91     874.77600000       0.75000000
  1 59 91     874.77600000       0.75000000
  1 59 92     874.77600000       0.75000000
  1 60 92     874.77600000       0.75000000
  1 60 93     874.77600000       0.75000000
  1 61 93     874.77600000       0.75000000
  1 62 93     874.77600000       0.75000000
  1 62 94     874.77600000       0.75000000
  1 63 94     874.77600000       0.75000000
  1 63 95     874.77600000       0.75000000
  1 64 95     874.77600000       0.75000000
  1 65 95     874.77600000       0.75000000
  1 65 96     874.77600000       0.75000000
  1 66 96     874.77600000       0.75000000
  1 66 97     874.77600000       0.75000000
  1 67 97     874.77600000       0.75000000
  1 67 98     874.77600000       0.75000000
  1 68 98     874.77600000       0.75000000
  1 69 98     874.77600000       0.75000000
  1 69 99     874.77600000       0.75000000
  1 70 99     874.77600000       0.75000000
  1 70 100     874.77600000       0.75000000
  1 71 100     874.77600000       0.75000000
  1 72 100     874.77600000       0.75000000
  1 72 101     874.77600000       0.75000000
  1 73 101     874.77600000       0.75000000
  1 73 102     874.77600000       0.75000000
  1 74 102     874.77600000       0.75000000
  1 75 102     874.77600000       0.75000000
  1 75 103     874.77600000       0.75000000
  1 76 103     874.77600000       0.75000000
  1 77 103     874.77600000       0.75000000
  1 77 104     874.77600000       0.75000000
  1 78 104     874.77600000       0.75000000
  1 79 104     874.77600000       0.75000000
  1 79 105     874.77600000       0.75000000
  1 80 105     874.77600000       0.75000000
  1 81 105     874.77600000       0.75000000
  1 81 106     874.77600000       0.75000000
  1 82 106     874.77600000       0.75000000
  1 83 106     874.77600000       0.75000000
  1 83 107     874.77600000       0.75000000
  1 84 107     874.77600000       0.75000000
  1 85 107     874.77600000       0.75000000
  1 85 108     874.77600000       0.75000000
  1 86 108     874.77600000       0.75000000
  1 87 108     874.77600000       0.75000000
  1 87 109     874.77600000       0.75000000
  1 88 109     874.77600000       0.75000000
  1 89 109     874.77600000       0.75000000
  1 90 109     874.77600000       0.75000000
  1 91 109     874.77600000       0.75000000
  1 92 109     874.77600000       0.75000000
  1 93 109     874.77600000       0.75000000
  1 94 109     874.77600000       0.75000000
  1 95 109     874.77600000       0.75000000
  1 96 109     874.77600000       0.75000000
  1 97 109     874.77600000       0.75000000
  1 98 109     874.77600000       0.75000000
  1 99 109     874.77600000       0.75000000
  1 100 109     874.77600000       0.75000000
  1 101 109     874.77600000       0.75000000
  1 102 109     874.77600000       0.75000000
  1 103 109     874.77600000       0.75000000
  1 104 109     874.77600000       0.75000000
  1 105 109     874.77600000       0.75000000
  1 106 109     874.77600000       0.75000000
  1 107 109     874.77600000       0.75000000
  1 110 108     874.77600000       0.75000000
  1 111 108     874.77600000       0.75000000
  2 48 84     874.77600000       0.75000000
  2 49 84     874.77600000       0.75000000
  2 49 85     874.77600000       0.75000000
  2 50 85     874.77600000       0.75000000
  2 51 85     874.77600000       0.75000000
  2 51 86     874.77600000       0.75000000
  2 52 86     874.77600000       0.75000000
  2 52 87     874.77600000       0.75000000
  2 53 87     874.77600000       0.75000000
  2 53 88     874.77600000       0.75000000
  2 54 88     874.77600000       0.75000000
  2 55 88     874.77600000       0.75000000
  2 55 89     874.77600000       0.75000000
  2 56 89     874.77600000       0.75000000
  2 56 90     874.77600000       0.75000000
  2 57 90     874.77600000       0.75000000
  2 58 90     874.77600000       0.75000000
  2 58 91     874.77600000       0.75000000
  2 59 91     874.77600000       0.75000000
  2 59 92     874.77600000       0.75000000
  2 60 92     874.77600000       0.75000000
  2 60 93     874.77600000       0.75000000
  2 61 93     874.77600000       0.75000000
  2 62 93     874.77600000       0.75000000
  2 62 94     874.77600000       0.75000000
  2 63 94     874.77600000       0.75000000
  2 63 95     874.77600000       0.75000000
  2 64 95     874.77600000       0.75000000
  2 65 95     874.77600000       0.75000000
  2 65 96     874.77600000       0.75000000
  2 66 96     874.77600000       0.75000000
  2 66 97     874.77600000       0.75000000
  2 67 97     874.77600000       0.75000000
  2 67 98     874.77600000       0.75000000
  2 68 98     874.77600000       0.75000000
  2 69 98     874.77600000       0.75000000
  2 69 99     874.77600000       0.75000000
  2 70 99     874.77600000       0.75000000
  2 70 100     874.77600000       0.75000000
  2 71 100     874.77600000       0.75000000
  2 72 100     874.77600000       0.75000000
  2 72 101     874.77600000       0.75000000
  2 73 101     874.77600000       0.75000000
  2 73 102     874.77600000       0.75000000
  2 74 102     874.77600000       0.75000000
  2 75 102     874.77600000       0.75000000
  2 75 103     874.77600000       0.75000000
  2 76 103     874.77600000       0.75000000
  2 77 103     874.77600000       0.75000000
  2 77 104     874.77600000       0.75000000