# File generated by Flopy version 3.3.7 on 07/12/2023 at 08:47:44.
BEGIN griddata
  strt
    CONSTANT    1324.00000000
END griddata

