# File generated by Flopy version 3.3.7 on 07/11/2023 at 18:13:41.
BEGIN options
  HEAD  FILEOUT  synthetic_desert.hds
END options

BEGIN period  1
  SAVE  HEAD  ALL
END period  1

