# File generated by Flopy version 3.3.7 on 07/11/2023 at 18:13:41.
BEGIN griddata
  strt
    CONSTANT    1324.00000000
END griddata

