# File generated by Flopy version 3.3.7 on 07/11/2023 at 18:13:40.
BEGIN options
  LENGTH_UNITS  meters
  XORIGIN  5.00516989E+05
  YORIGIN  3.80516628E+06
END options

BEGIN dimensions
  NLAY  4
  NROW  117
  NCOL  109
END dimensions

BEGIN griddata
  delr
    INTERNAL  FACTOR  1.0
       150.00000000     150.00000000     150.00000000     150.00000000     150.00000000     150.00000000     150.00000000     150.00000000     150.00000000     150.00000000     150.00000000     150.00000000     150.00000000     150.00000000     150.00000000     150.00000000     150.00000000     150.00000000     150.00000000     150.00000000     150.00000000     150.00000000     150.00000000     150.00000000     150.00000000     150.00000000     150.00000000     150.00000000     150.00000000     150.00000000     150.00000000     150.00000000     150.00000000     150.00000000     150.00000000     150.00000000     150.00000000     150.00000000     150.00000000     150.00000000     150.00000000     150.00000000     150.00000000     150.00000000     150.00000000     150.00000000     150.00000000     150.00000000     150.00000000     150.00000000     150.00000000     150.00000000     150.00000000     150.00000000     150.00000000     150.00000000     150.00000000     150.00000000     150.00000000     150.00000000     150.00000000     150.00000000     150.00000000     150.00000000     150.00000000     150.00000000     150.00000000     150.00000000     150.00000000     150.00000000     150.00000000     150.00000000     150.00000000     150.00000000     150.00000000     150.00000000     150.00000000     150.00000000     150.00000000     150.00000000     150.00000000     150.00000000     150.00000000     150.00000000     150.00000000     150.00000000     150.00000000     150.00000000     150.00000000     150.00000000     150.00000000     150.00000000     150.00000000     150.00000000     150.00000000     150.00000000     150.00000000     150.00000000     150.00000000     150.00000000     150.00000000     150.00000000     150.00000000     150.00000000     150.00000000     150.00000000     150.00000000     150.00000000     150.00000000
  delc
    INTERNAL  FACTOR  1.0
       150.00000000     150.00000000     150.00000000     150.00000000     150.00000000     150.00000000     150.00000000     150.00000000     150.00000000     150.00000000     150.00000000     150.00000000     150.00000000     150.00000000     150.00000000     150.00000000     150.00000000     150.00000000     150.00000000     150.00000000     150.00000000     150.00000000     150.00000000     150.00000000     150.00000000     150.00000000     150.00000000     150.00000000     150.00000000     150.00000000     150.00000000     150.00000000     150.00000000     150.00000000     150.00000000     150.00000000     150.00000000     150.00000000     150.00000000     150.00000000     150.00000000     150.00000000     150.00000000     150.00000000     150.00000000     150.00000000     150.00000000     150.00000000     150.00000000     150.00000000     150.00000000     150.00000000     150.00000000     150.00000000     150.00000000     150.00000000     150.00000000     150.00000000     150.00000000     150.00000000     150.00000000     150.00000000     150.00000000     150.00000000     150.00000000     150.00000000     150.00000000     150.00000000     150.00000000     150.00000000     150.00000000     150.00000000     150.00000000     150.00000000     150.00000000     150.00000000     150.00000000     150.00000000     150.00000000     150.00000000     150.00000000     150.00000000     150.00000000     150.00000000     150.00000000     150.00000000     150.00000000     150.00000000     150.00000000     150.00000000     150.00000000     150.00000000     150.00000000     150.00000000     150.00000000     150.00000000     150.00000000     150.00000000     150.00000000     150.00000000     150.00000000     150.00000000     150.00000000     150.00000000     150.00000000     150.00000000     150.00000000     150.00000000     150.00000000
       150.00000000     150.00000000     150.00000000     150.00000000     150.00000000     150.00000000     150.00000000     150.00000000
  top
    INTERNAL  FACTOR  1.0
      1228.00000000    1191.00000000    1150.00000000    1146.00000000    1124.00000000    1084.00000000    1125.00000000    1082.00000000    1080.00000000    1135.00000000    1174.00000000    1245.00000000    1237.00000000    1196.00000000    1182.00000000    1119.00000000    1028.00000000     995.00000000     980.00000000     983.00000000     946.00000000     899.00000000     891.00000000     886.00000000     883.00000000     882.00000000     882.00000000     882.00000000     882.00000000     882.00000000     882.00000000     882.00000000     882.00000000     882.00000000     881.00000000     880.00000000     880.00000000     880.00000000     880.00000000     880.00000000     881.00000000     882.00000000     882.00000000     883.00000000     884.00000000     885.00000000     887.00000000     889.00000000     891.00000000     892.00000000     893.00000000     895.00000000     896.00000000     899.00000000     900.00000000     903.00000000     904.00000000     905.00000000     906.00000000     908.00000000     910.00000000     911.00000000     913.00000000     914.00000000     916.00000000     917.00000000     919.00000000     920.00000000     921.00000000     923.00000000     924.00000000     926.00000000     926.00000000     926.00000000     927.00000000     927.00000000     928.00000000     929.00000000     930.00000000     931.00000000     931.00000000     932.00000000     936.00000000     939.00000000     942.00000000     945.00000000     948.00000000     952.00000000     955.00000000     959.00000000     962.00000000     966.00000000     971.00000000     975.00000000     977.00000000     978.00000000     981.00000000     979.00000000     981.00000000     981.00000000     980.00000000     980.00000000     981.00000000     981.00000000     983.00000000     981.00000000     981.00000000     981.00000000     981.00000000
      1215.00000000    1173.00000000    1131.00000000    1117.00000000    1117.00000000    1125.00000000    1154.00000000    1065.00000000    1073.00000000    1144.00000000    1204.00000000    1261.00000000    1273.00000000    1189.00000000    1115.00000000    1076.00000000    1035.00000000    1025.00000000    1002.00000000     990.00000000     977.00000000     918.00000000     890.00000000     885.00000000     883.00000000     882.00000000     883.00000000     883.00000000     881.00000000     881.00000000     881.00000000     884.00000000     882.00000000     881.00000000     880.00000000     880.00000000     880.00000000     880.00000000     880.00000000     880.00000000     880.00000000     880.00000000     881.00000000     882.00000000     883.00000000     883.00000000     885.00000000     887.00000000     889.00000000     890.00000000     891.00000000     893.00000000     895.00000000     897.00000000     898.00000000     900.00000000     901.00000000     903.00000000     904.00000000     906.00000000     908.00000000     909.00000000     911.00000000     912.00000000     914.00000000     915.00000000     916.00000000     918.00000000     919.00000000     920.00000000     921.00000000     923.00000000     923.00000000     924.00000000     924.00000000     925.00000000     926.00000000     926.00000000     927.00000000     927.00000000     930.00000000     931.00000000     933.00000000     937.00000000     939.00000000     943.00000000     946.00000000     949.00000000     952.00000000     957.00000000     961.00000000     963.00000000     969.00000000     974.00000000     976.00000000     975.00000000     977.00000000     976.00000000     979.00000000     977.00000000     976.00000000     976.00000000     977.00000000     979.00000000     981.00000000     981.00000000     978.00000000     978.00000000     978.00000000
      1278.00000000    1236.00000000    1201.00000000    1182.00000000    1149.00000000    1123.00000000    1106.00000000    1045.00000000    1061.00000000    1106.00000000    1167.00000000    1242.00000000    1315.00000000    1266.00000000    1203.00000000    1150.00000000    1058.00000000    1006.00000000     970.00000000     957.00000000     935.00000000     897.00000000     890.00000000     885.00000000     883.00000000     881.00000000     883.00000000     882.00000000     880.00000000     880.00000000     884.00000000     887.00000000     892.00000000     882.00000000     880.00000000     878.00000000     878.00000000     878.00000000     878.00000000     879.00000000     878.00000000     879.00000000     879.00000000     880.00000000     881.00000000     882.00000000     884.00000000     885.00000000     886.00000000     887.00000000     890.00000000     891.00000000     893.00000000     895.00000000     896.00000000     897.00000000     898.00000000     901.00000000     902.00000000     904.00000000     905.00000000     906.00000000     908.00000000     909.00000000     911.00000000     912.00000000     914.00000000     915.00000000     916.00000000     918.00000000     919.00000000     919.00000000     920.00000000     920.00000000     921.00000000     922.00000000     923.00000000     924.00000000     925.00000000     926.00000000     927.00000000     928.00000000     931.00000000     934.00000000     937.00000000     940.00000000     943.00000000     946.00000000     949.00000000     954.00000000     958.00000000     960.00000000     964.00000000     968.00000000     970.00000000     971.00000000     972.00000000     976.00000000     976.00000000     974.00000000     973.00000000     973.00000000     974.00000000     975.00000000     975.00000000     976.00000000     975.00000000     974.00000000     973.00000000
      1257.00000000    1184.00000000    1177.00000000    1210.00000000    1125.00000000    1071.00000000    1067.00000000    1025.00000000    1062.00000000    1149.00000000    1201.00000000    1262.00000000    1293.00000000    1237.00000000    1164.00000000    1124.00000000    1049.00000000    1000.00000000     958.00000000     941.00000000     917.00000000     900.00000000     891.00000000     886.00000000     883.00000000     880.00000000     880.00000000     879.00000000     879.00000000     880.00000000     883.00000000     891.00000000     914.00000000     902.00000000     885.00000000     882.00000000     877.00000000     877.00000000     877.00000000     877.00000000     877.00000000     878.00000000     878.00000000     878.00000000     879.00000000     880.00000000     881.00000000     883.00000000     884.00000000     886.00000000     888.00000000     890.00000000     891.00000000     892.00000000     894.00000000     895.00000000     896.00000000     898.00000000     899.00000000     901.00000000     902.00000000     904.00000000     905.00000000     906.00000000     908.00000000     909.00000000     911.00000000     912.00000000     913.00000000     915.00000000     916.00000000     916.00000000     916.00000000     918.00000000     918.00000000     919.00000000     921.00000000     921.00000000     922.00000000     923.00000000     924.00000000     926.00000000     928.00000000     932.00000000     934.00000000     937.00000000     940.00000000     943.00000000     946.00000000     950.00000000     954.00000000     957.00000000     960.00000000     962.00000000     964.00000000     965.00000000     968.00000000     970.00000000     972.00000000     971.00000000     969.00000000     969.00000000     970.00000000     970.00000000     969.00000000     971.00000000     971.00000000     970.00000000     969.00000000
      1232.00000000    1176.00000000    1114.00000000    1130.00000000    1124.00000000    1033.00000000    1025.00000000    1013.00000000    1061.00000000    1147.00000000    1234.00000000    1289.00000000    1305.00000000    1271.00000000    1224.00000000    1186.00000000    1083.00000000    1013.00000000     954.00000000     930.00000000     914.00000000     901.00000000     893.00000000     886.00000000     883.00000000     880.00000000     878.00000000     878.00000000     878.00000000     879.00000000     889.00000000     912.00000000     944.00000000     909.00000000     891.00000000     883.00000000     877.00000000     876.00000000     876.00000000     876.00000000     876.00000000     877.00000000     877.00000000     877.00000000     878.00000000     878.00000000     879.00000000     881.00000000     883.00000000     884.00000000     886.00000000     888.00000000     889.00000000     890.00000000     892.00000000     893.00000000     894.00000000     896.00000000     897.00000000     899.00000000     900.00000000     902.00000000     902.00000000     904.00000000     905.00000000     906.00000000     908.00000000     910.00000000     911.00000000     913.00000000     913.00000000     914.00000000     915.00000000     916.00000000     916.00000000     916.00000000     918.00000000     919.00000000     920.00000000     921.00000000     922.00000000     924.00000000     926.00000000     929.00000000     932.00000000     934.00000000     937.00000000     940.00000000     943.00000000     947.00000000     951.00000000     953.00000000     956.00000000     957.00000000     961.00000000     963.00000000     964.00000000     967.00000000     968.00000000     970.00000000     968.00000000     966.00000000     966.00000000     967.00000000     966.00000000     966.00000000     968.00000000     968.00000000     966.00000000
      1179.00000000    1170.00000000    1100.00000000    1043.00000000    1068.00000000     995.00000000     987.00000000     997.00000000    1048.00000000    1137.00000000    1197.00000000    1287.00000000    1324.00000000    1288.00000000    1217.00000000    1114.00000000    1067.00000000    1010.00000000     965.00000000     936.00000000     913.00000000     900.00000000     891.00000000     884.00000000     881.00000000     878.00000000     876.00000000     877.00000000     878.00000000     877.00000000     880.00000000     891.00000000     936.00000000     953.00000000     903.00000000     886.00000000     876.00000000     875.00000000     875.00000000     875.00000000     876.00000000     876.00000000     876.00000000     876.00000000     877.00000000     877.00000000     877.00000000     879.00000000     881.00000000     882.00000000     884.00000000     885.00000000     887.00000000     888.00000000     889.00000000     891.00000000     892.00000000     893.00000000     895.00000000     896.00000000     897.00000000     898.00000000     900.00000000     901.00000000     902.00000000     903.00000000     905.00000000     907.00000000     909.00000000     910.00000000     911.00000000     912.00000000     912.00000000     913.00000000     913.00000000     914.00000000     916.00000000     916.00000000     918.00000000     918.00000000     920.00000000     922.00000000     924.00000000     926.00000000     929.00000000     931.00000000     934.00000000     938.00000000     940.00000000     946.00000000     948.00000000     949.00000000     950.00000000     952.00000000     955.00000000     956.00000000     958.00000000     961.00000000     964.00000000     965.00000000     964.00000000     962.00000000     963.00000000     963.00000000     962.00000000     962.00000000     963.00000000     963.00000000     963.00000000
      1126.00000000    1132.00000000    1084.00000000    1032.00000000     997.00000000     975.00000000     976.00000000     991.00000000    1033.00000000    1099.00000000    1166.00000000    1293.00000000    1322.00000000    1302.00000000    1224.00000000    1135.00000000    1064.00000000    1008.00000000     968.00000000     945.00000000     911.00000000     896.00000000     889.00000000     883.00000000     879.00000000     876.00000000     874.00000000     875.00000000     875.00000000     876.00000000     877.00000000     882.00000000     919.00000000     957.00000000     903.00000000     880.00000000     876.00000000     874.00000000     874.00000000     874.00000000     875.00000000     876.00000000     876.00000000     876.00000000     877.00000000     877.00000000     877.00000000     878.00000000     880.00000000     881.00000000     882.00000000     884.00000000     885.00000000     886.00000000     887.00000000     889.00000000     890.00000000     891.00000000     893.00000000     894.00000000     895.00000000     896.00000000     898.00000000     899.00000000     900.00000000     901.00000000     902.00000000     904.00000000     906.00000000     908.00000000     909.00000000     910.00000000     910.00000000     911.00000000     912.00000000     913.00000000     914.00000000     915.00000000     915.00000000     916.00000000     918.00000000     920.00000000     922.00000000     924.00000000     926.00000000     929.00000000     932.00000000     936.00000000     941.00000000     951.00000000     952.00000000     945.00000000     947.00000000     949.00000000     951.00000000     953.00000000     955.00000000     957.00000000     961.00000000     961.00000000     960.00000000     958.00000000     959.00000000     959.00000000     958.00000000     958.00000000     960.00000000     961.00000000     961.00000000
      1088.00000000    1088.00000000    1044.00000000    1015.00000000     980.00000000     966.00000000     967.00000000     977.00000000    1012.00000000    1136.00000000    1211.00000000    1249.00000000    1295.00000000    1266.00000000    1202.00000000    1171.00000000    1063.00000000     997.00000000     951.00000000     925.00000000     908.00000000     890.00000000     886.00000000     879.00000000     876.00000000     873.00000000     871.00000000     873.00000000     874.00000000     873.00000000     875.00000000     878.00000000     901.00000000     920.00000000     888.00000000     876.00000000     876.00000000     874.00000000     874.00000000     875.00000000     874.00000000     875.00000000     875.00000000     876.00000000     876.00000000     876.00000000     877.00000000     877.00000000     878.00000000     879.00000000     881.00000000     882.00000000     883.00000000     884.00000000     886.00000000     887.00000000     888.00000000     889.00000000     890.00000000     892.00000000     893.00000000     894.00000000     895.00000000     896.00000000     897.00000000     898.00000000     900.00000000     901.00000000     903.00000000     905.00000000     906.00000000     908.00000000     908.00000000     908.00000000     909.00000000     910.00000000     911.00000000     912.00000000     913.00000000     914.00000000     916.00000000     918.00000000     919.00000000     922.00000000     924.00000000     926.00000000     929.00000000     933.00000000     940.00000000     945.00000000     969.00000000     944.00000000     945.00000000     946.00000000     947.00000000     948.00000000     950.00000000     952.00000000     953.00000000     955.00000000     955.00000000     955.00000000     955.00000000     955.00000000     955.00000000     955.00000000     957.00000000     958.00000000     958.00000000
      1071.00000000    1079.00000000    1025.00000000     979.00000000     964.00000000     961.00000000     961.00000000     963.00000000     992.00000000    1071.00000000    1137.00000000    1169.00000000    1280.00000000    1272.00000000    1166.00000000    1094.00000000    1030.00000000     981.00000000     943.00000000     928.00000000     899.00000000     888.00000000     884.00000000     877.00000000     875.00000000     871.00000000     869.00000000     871.00000000     873.00000000     872.00000000     873.00000000     874.00000000     878.00000000     888.00000000     878.00000000     873.00000000     876.00000000     875.00000000     874.00000000     874.00000000     874.00000000     875.00000000     875.00000000     875.00000000     875.00000000     876.00000000     876.00000000     876.00000000     877.00000000     878.00000000     879.00000000     881.00000000     882.00000000     883.00000000     884.00000000     886.00000000     886.00000000     888.00000000     888.00000000     890.00000000     891.00000000     892.00000000     894.00000000     894.00000000     895.00000000     896.00000000     898.00000000     899.00000000     901.00000000     902.00000000     904.00000000     905.00000000     905.00000000     907.00000000     907.00000000     908.00000000     910.00000000     910.00000000     912.00000000     913.00000000     915.00000000     916.00000000     916.00000000     919.00000000     921.00000000     924.00000000     927.00000000     931.00000000     935.00000000     940.00000000     942.00000000     941.00000000     941.00000000     942.00000000     943.00000000     944.00000000     946.00000000     947.00000000     950.00000000     952.00000000     952.00000000     952.00000000     952.00000000     952.00000000     952.00000000     953.00000000     955.00000000     956.00000000     956.00000000
       997.00000000     985.00000000     971.00000000     965.00000000     950.00000000     951.00000000     952.00000000     951.00000000     970.00000000    1031.00000000    1046.00000000    1126.00000000    1211.00000000    1181.00000000    1160.00000000    1137.00000000    1012.00000000     964.00000000     933.00000000     910.00000000     898.00000000     902.00000000     902.00000000     874.00000000     871.00000000     868.00000000     868.00000000     868.00000000     869.00000000     870.00000000     869.00000000     871.00000000     871.00000000     871.00000000     870.00000000     872.00000000     873.00000000     878.00000000     874.00000000     874.00000000     875.00000000     878.00000000     875.00000000     874.00000000     874.00000000     875.00000000     876.00000000     876.00000000     877.00000000     877.00000000     878.00000000     879.00000000     880.00000000     881.00000000     882.00000000     883.00000000     884.00000000     886.00000000     886.00000000     888.00000000     889.00000000     890.00000000     891.00000000     892.00000000     893.00000000     894.00000000     895.00000000     897.00000000     898.00000000     899.00000000     901.00000000     903.00000000     904.00000000     904.00000000     905.00000000     906.00000000     907.00000000     908.00000000     909.00000000     910.00000000     911.00000000     912.00000000     913.00000000     916.00000000     918.00000000     923.00000000     926.00000000     929.00000000     932.00000000     934.00000000     936.00000000     936.00000000     938.00000000     939.00000000     940.00000000     941.00000000     942.00000000     943.00000000     945.00000000     948.00000000     948.00000000     949.00000000     949.00000000     949.00000000     950.00000000     950.00000000     952.00000000     953.00000000     954.00000000
       960.00000000     951.00000000     944.00000000     940.00000000     942.00000000     943.00000000     942.00000000     945.00000000     985.00000000     996.00000000    1032.00000000    1130.00000000    1138.00000000    1095.00000000    1084.00000000    1057.00000000     973.00000000     929.00000000     917.00000000     896.00000000     884.00000000     900.00000000     874.00000000     870.00000000     868.00000000     868.00000000     868.00000000     868.00000000     868.00000000     868.00000000     868.00000000     868.00000000     869.00000000     869.00000000     870.00000000     870.00000000     870.00000000     872.00000000     873.00000000     872.00000000     873.00000000     878.00000000     873.00000000     873.00000000     872.00000000     874.00000000     875.00000000     876.00000000     876.00000000     877.00000000     877.00000000     878.00000000     878.00000000     880.00000000     881.00000000     882.00000000     883.00000000     884.00000000     885.00000000     886.00000000     888.00000000     889.00000000     889.00000000     890.00000000     891.00000000     892.00000000     894.00000000     895.00000000     896.00000000     898.00000000     899.00000000     901.00000000     902.00000000     902.00000000     904.00000000     905.00000000     906.00000000     907.00000000     907.00000000     908.00000000     909.00000000     910.00000000     912.00000000     914.00000000     917.00000000     921.00000000     924.00000000     926.00000000     929.00000000     931.00000000     933.00000000     934.00000000     935.00000000     936.00000000     937.00000000     938.00000000     939.00000000     941.00000000     943.00000000     945.00000000     946.00000000     946.00000000     947.00000000     947.00000000     948.00000000     950.00000000     951.00000000     951.00000000     952.00000000
       952.00000000     945.00000000     940.00000000     935.00000000     934.00000000     935.00000000     934.00000000     934.00000000     943.00000000     964.00000000    1017.00000000    1116.00000000    1060.00000000     998.00000000    1016.00000000     977.00000000     922.00000000     893.00000000     883.00000000     881.00000000     877.00000000     874.00000000     869.00000000     868.00000000     868.00000000     868.00000000     868.00000000     868.00000000     868.00000000     868.00000000     868.00000000     868.00000000     868.00000000     869.00000000     869.00000000     869.00000000     869.00000000     871.00000000     872.00000000     871.00000000     870.00000000     871.00000000     872.00000000     872.00000000     872.00000000     872.00000000     873.00000000     874.00000000     875.00000000     876.00000000     876.00000000     877.00000000     877.00000000     879.00000000     880.00000000     881.00000000     882.00000000     882.00000000     883.00000000     884.00000000     885.00000000     886.00000000     887.00000000     888.00000000     889.00000000     890.00000000     892.00000000     894.00000000     895.00000000     896.00000000     897.00000000     898.00000000     900.00000000     900.00000000     901.00000000     903.00000000     904.00000000     905.00000000     906.00000000     906.00000000     907.00000000     908.00000000     910.00000000     913.00000000     916.00000000     920.00000000     922.00000000     925.00000000     927.00000000     929.00000000     930.00000000     931.00000000     931.00000000     932.00000000     934.00000000     935.00000000     937.00000000     938.00000000     940.00000000     942.00000000     943.00000000     944.00000000     944.00000000     945.00000000     946.00000000     948.00000000     949.00000000     950.00000000     950.00000000
       942.00000000     938.00000000     935.00000000     932.00000000     929.00000000     928.00000000     927.00000000     926.00000000     927.00000000     936.00000000     984.00000000    1030.00000000    1028.00000000     972.00000000     931.00000000     925.00000000     893.00000000     883.00000000     875.00000000     873.00000000     870.00000000     869.00000000     868.00000000     868.00000000     868.00000000     868.00000000     868.00000000     868.00000000     868.00000000     868.00000000     868.00000000     868.00000000     868.00000000     869.00000000     869.00000000     869.00000000     869.00000000     869.00000000     869.00000000     869.00000000     869.00000000     870.00000000     871.00000000     871.00000000     872.00000000     872.00000000     872.00000000     873.00000000     874.00000000     874.00000000     875.00000000     876.00000000     876.00000000     877.00000000     878.00000000     879.00000000     880.00000000     882.00000000     882.00000000     883.00000000     884.00000000     884.00000000     886.00000000     886.00000000     887.00000000     889.00000000     890.00000000     891.00000000     892.00000000     894.00000000     895.00000000     897.00000000     898.00000000     899.00000000     900.00000000     901.00000000     902.00000000     902.00000000     903.00000000     904.00000000     906.00000000     907.00000000     908.00000000     912.00000000     914.00000000     917.00000000     920.00000000     922.00000000     924.00000000     926.00000000     927.00000000     928.00000000     929.00000000     930.00000000     932.00000000     933.00000000     934.00000000     936.00000000     938.00000000     939.00000000     940.00000000     942.00000000     943.00000000     944.00000000     945.00000000     946.00000000     947.00000000     948.00000000     950.00000000