# File generated by Flopy version 3.3.7 on 07/12/2023 at 08:47:43.
BEGIN options
END options

BEGIN packages
  DIS6  synth_desert.dis  dis
  NPF6  synth_desert.npf  npf
  IC6  synth_desert.ic  ic
  EVT6  synth_desert.evt  evt_0
  RCH6  synth_desert.rch  rch_0
  GHB6  synth_desert.ghb  ghb_0
  OC6  synth_desert.oc  oc
END packages

