# File generated by Flopy version 3.3.7 on 07/12/2023 at 08:47:44.
BEGIN options
  HEAD  FILEOUT  synth_desert.hds
END options

BEGIN period  1
  SAVE  HEAD  ALL
END period  1

