# File generated by Flopy version 3.3.7 on 07/11/2023 at 18:13:40.
BEGIN options
END options

BEGIN packages
  DIS6  synthetic_desert.dis  dis
  NPF6  synthetic_desert.npf  npf
  IC6  synthetic_desert.ic  ic
  EVT6  synthetic_desert.evt  evt_0
  RCH6  synthetic_desert.rch  rch_0
  GHB6  synthetic_desert.ghb  ghb_0
  OC6  synthetic_desert.oc  oc
END packages

