# File generated by Flopy version 3.3.7 on 07/12/2023 at 08:47:44.
BEGIN options
END options

BEGIN dimensions
  MAXBOUND  927
  NSEG  1
END dimensions

BEGIN period  1
  1 9 26     871.00000000       0.00482985       5.00000000       1.00000000
  1 9 27     869.00000000       0.00482985       5.00000000       1.00000000
  1 9 28     871.00000000       0.00482985       5.00000000       1.00000000
  1 9 29     873.00000000       0.00482985       5.00000000       1.00000000
  1 9 30     872.00000000       0.00482985       5.00000000       1.00000000
  1 10 25     871.00000000       0.00482985       5.00000000       1.00000000
  1 10 26     868.00000000       0.00482985       5.00000000       1.00000000
  1 10 27     868.00000000       0.00482985       5.00000000       1.00000000
  1 10 28     868.00000000       0.00482985       5.00000000       1.00000000
  1 10 29     869.00000000       0.00482985       5.00000000       1.00000000
  1 10 30     870.00000000       0.00482985       5.00000000       1.00000000
  1 10 31     869.00000000       0.00482985       5.00000000       1.00000000
  1 10 32     871.00000000       0.00482985       5.00000000       1.00000000
  1 10 33     871.00000000       0.00482985       5.00000000       1.00000000
  1 11 23     874.00000000       0.00482985       5.00000000       1.00000000
  1 11 24     870.00000000       0.00482985       5.00000000       1.00000000
  1 11 25     868.00000000       0.00482985       5.00000000       1.00000000
  1 11 26     868.00000000       0.00482985       5.00000000       1.00000000
  1 11 27     868.00000000       0.00482985       5.00000000       1.00000000
  1 11 28     868.00000000       0.00482985       5.00000000       1.00000000
  1 11 29     868.00000000       0.00482985       5.00000000       1.00000000
  1 11 30     868.00000000       0.00482985       5.00000000       1.00000000
  1 11 31     868.00000000       0.00482985       5.00000000       1.00000000
  1 11 32     868.00000000       0.00482985       5.00000000       1.00000000
  1 11 33     869.00000000       0.00482985       5.00000000       1.00000000
  1 11 34     869.00000000       0.00482985       5.00000000       1.00000000
  1 12 23     869.00000000       0.00482985       5.00000000       1.00000000
  1 12 24     868.00000000       0.00482985       5.00000000       1.00000000
  1 12 25     868.00000000       0.00482985       5.00000000       1.00000000
  1 12 26     868.00000000       0.00482985       5.00000000       1.00000000
  1 12 27     868.00000000       0.00482985       5.00000000       1.00000000
  1 12 28     868.00000000       0.00482985       5.00000000       1.00000000
  1 12 29     868.00000000       0.00482985       5.00000000       1.00000000
  1 12 30     868.00000000       0.00482985       5.00000000       1.00000000
  1 12 31     868.00000000       0.00482985       5.00000000       1.00000000
  1 12 32     868.00000000       0.00482985       5.00000000       1.00000000
  1 12 33     868.00000000       0.00482985       5.00000000       1.00000000
  1 12 34     869.00000000       0.00482985       5.00000000       1.00000000
  1 13 20     873.00000000       0.00482985       5.00000000       1.00000000
  1 13 21     870.00000000       0.00482985       5.00000000       1.00000000
  1 13 22     869.00000000       0.00482985       5.00000000       1.00000000
  1 13 23     868.00000000       0.00482985       5.00000000       1.00000000
  1 13 24     868.00000000       0.00482985       5.00000000       1.00000000
  1 13 25     868.00000000       0.00482985       5.00000000       1.00000000
  1 13 26     868.00000000       0.00482985       5.00000000       1.00000000
  1 13 27     868.00000000       0.00482985       5.00000000       1.00000000
  1 13 28     868.00000000       0.00482985       5.00000000       1.00000000
  1 13 29     868.00000000       0.00482985       5.00000000       1.00000000
  1 13 30     868.00000000       0.00482985       5.00000000       1.00000000
  1 13 31     868.00000000       0.00482985       5.00000000       1.00000000
  1 13 32     868.00000000       0.00482985       5.00000000       1.00000000
  1 13 33     868.00000000       0.00482985       5.00000000       1.00000000
  1 13 34     869.00000000       0.00482985       5.00000000       1.00000000
  1 14 19     872.00000000       0.00482985       5.00000000       1.00000000
  1 14 20     869.00000000       0.00482985       5.00000000       1.00000000
  1 14 21     868.00000000       0.00482985       5.00000000       1.00000000
  1 14 22     868.00000000       0.00482985       5.00000000       1.00000000
  1 14 23     868.00000000       0.00482985       5.00000000       1.00000000
  1 14 24     868.00000000       0.00482985       5.00000000       1.00000000
  1 14 25     868.00000000       0.00482985       5.00000000       1.00000000
  1 14 26     868.00000000       0.00482985       5.00000000       1.00000000
  1 14 27     868.00000000       0.00482985       5.00000000       1.00000000
  1 14 28     868.00000000       0.00482985       5.00000000       1.00000000
  1 14 29     868.00000000       0.00482985       5.00000000       1.00000000
  1 14 30     868.00000000       0.00482985       5.00000000       1.00000000
  1 14 31     868.00000000       0.00482985       5.00000000       1.00000000
  1 14 32     868.00000000       0.00482985       5.00000000       1.00000000
  1 14 33     869.00000000       0.00482985       5.00000000       1.00000000
  1 14 34     869.00000000       0.00482985       5.00000000       1.00000000
  1 15 19     869.00000000       0.00482985       5.00000000       1.00000000
  1 15 20     868.00000000       0.00482985       5.00000000       1.00000000
  1 15 21     868.00000000       0.00482985       5.00000000       1.00000000
  1 15 22     868.00000000       0.00482985       5.00000000       1.00000000
  1 15 23     868.00000000       0.00482985       5.00000000       1.00000000
  1 15 24     868.00000000       0.00482985       5.00000000       1.00000000
  1 15 25     868.00000000       0.00482985       5.00000000       1.00000000
  1 15 26     868.00000000       0.00482985       5.00000000       1.00000000
  1 15 27     868.00000000       0.00482985       5.00000000       1.00000000
  1 15 28     868.00000000       0.00482985       5.00000000       1.00000000
  1 15 29     868.00000000       0.00482985       5.00000000       1.00000000
  1 15 30     868.00000000       0.00482985       5.00000000       1.00000000
  1 15 31     868.00000000       0.00482985       5.00000000       1.00000000
  1 15 32     868.00000000       0.00482985       5.00000000       1.00000000
  1 15 33     868.00000000       0.00482985       5.00000000       1.00000000
  1 15 34     869.00000000       0.00482985       5.00000000       1.00000000
  1 16 19     869.00000000       0.00482985       5.00000000       1.00000000
  1 16 20     868.00000000       0.00482985       5.00000000       1.00000000
  1 16 21     868.00000000       0.00482985       5.00000000       1.00000000
  1 16 22     868.00000000       0.00482985       5.00000000       1.00000000
  1 16 23     868.00000000       0.00482985       5.00000000       1.00000000
  1 16 24     868.00000000       0.00482985       5.00000000       1.00000000
  1 16 25     868.00000000       0.00482985       5.00000000       1.00000000
  1 16 26     868.00000000       0.00482985       5.00000000       1.00000000
  1 16 27     868.00000000       0.00482985       5.00000000       1.00000000
  1 16 28     868.00000000       0.00482985       5.00000000       1.00000000
  1 16 29     868.00000000       0.00482985       5.00000000       1.00000000
  1 16 30     868.00000000       0.00482985       5.00000000       1.00000000
  1 16 31     868.00000000       0.00482985       5.00000000       1.00000000
  1 16 32     868.00000000       0.00482985       5.00000000       1.00000000
  1 16 33     868.00000000       0.00482985       5.00000000       1.00000000
  1 16 34     869.00000000       0.00482985       5.00000000       1.00000000
  1 17 20     868.00000000       0.00482985       5.00000000       1.00000000
  1 17 21     868.00000000       0.00482985       5.00000000       1.00000000
  1 17 22     868.00000000       0.00482985       5.00000000       1.00000000
  1 17 23     868.00000000       0.00482985       5.00000000       1.00000000
  1 17 24     868.00000000       0.00482985       5.00000000       1.00000000
  1 17 25     868.00000000       0.00482985       5.00000000       1.00000000
  1 17 26     868.00000000       0.00482985       5.00000000       1.00000000
  1 17 27     868.00000000       0.00482985       5.00000000       1.00000000
  1 17 28     868.00000000       0.00482985       5.00000000       1.00000000
  1 17 29     868.00000000       0.00482985       5.00000000       1.00000000
  1 17 30     868.00000000       0.00482985       5.00000000       1.00000000
  1 17 31     868.00000000       0.00482985       5.00000000       1.00000000
  1 17 32     868.00000000       0.00482985       5.00000000       1.00000000
  1 17 33     869.00000000       0.00482985       5.00000000       1.00000000
  1 18 19     869.00000000       0.00482985       5.00000000       1.00000000
  1 18 20     868.00000000       0.00482985       5.00000000       1.00000000
  1 18 21     868.00000000       0.00482985       5.00000000       1.00000000
  1 18 22     868.00000000       0.00482985       5.00000000       1.00000000
  1 18 23     868.00000000       0.00482985       5.00000000       1.00000000
  1 18 24     868.00000000       0.00482985       5.00000000       1.00000000
  1 18 25     868.00000000       0.00482985       5.00000000       1.00000000
  1 18 26     868.00000000       0.00482985       5.00000000       1.00000000
  1 18 27     868.00000000       0.00482985       5.00000000       1.00000000
  1 18 28     868.00000000       0.00482985       5.00000000       1.00000000
  1 18 29     868.00000000       0.00482985       5.00000000       1.00000000
  1 18 30     868.00000000       0.00482985       5.00000000       1.00000000
  1 18 31     868.00000000       0.00482985       5.00000000       1.00000000
  1 18 32     868.00000000       0.00482985       5.00000000       1.00000000
  1 18 33     869.00000000       0.00482985       5.00000000       1.00000000
  1 19 19     869.00000000       0.00482985       5.00000000       1.00000000
  1 19 20     868.00000000       0.00482985       5.00000000       1.00000000
  1 19 21     868.00000000       0.00482985       5.00000000       1.00000000
  1 19 22     868.00000000       0.00482985       5.00000000       1.00000000
  1 19 23     868.00000000       0.00482985       5.00000000       1.00000000
  1 19 24     868.00000000       0.00482985       5.00000000       1.00000000
  1 19 25     868.00000000       0.00482985       5.00000000       1.00000000
  1 19 26     868.00000000       0.00482985       5.00000000       1.00000000
  1 19 27     868.00000000       0.00482985       5.00000000       1.00000000
  1 19 28     868.00000000       0.00482985       5.00000000       1.00000000
  1 19 29     868.00000000       0.00482985       5.00000000       1.00000000
  1 19 30     868.00000000       0.00482985       5.00000000       1.00000000
  1 19 31     868.00000000       0.00482985       5.00000000       1.00000000
  1 19 32     869.00000000       0.00482985       5.00000000       1.00000000
  1 19 33     869.00000000       0.00482985       5.00000000       1.00000000
  1 19 34     869.00000000       0.00482985       5.00000000       1.00000000
  1 20 19     868.00000000       0.00482985       5.00000000       1.00000000
  1 20 20     868.00000000       0.00482985       5.00000000       1.00000000
  1 20 21     868.00000000       0.00482985       5.00000000       1.00000000
  1 20 22     868.00000000       0.00482985       5.00000000       1.00000000
  1 20 23     868.00000000       0.00482985       5.00000000       1.00000000
  1 20 24     868.00000000       0.00482985       5.00000000       1.00000000
  1 20 25     868.00000000       0.00482985       5.00000000       1.00000000
  1 20 26     868.00000000       0.00482985       5.00000000       1.00000000
  1 20 27     868.00000000       0.00482985       5.00000000       1.00000000
  1 20 28     868.00000000       0.00482985       5.00000000       1.00000000
  1 20 29     868.00000000       0.00482985       5.00000000       1.00000000
  1 20 30     868.00000000       0.00482985       5.00000000       1.00000000
  1 20 31     868.00000000       0.00482985       5.00000000       1.00000000
  1 20 32     868.00000000       0.00482985       5.00000000       1.00000000
  1 20 33     868.00000000       0.00482985       5.00000000       1.00000000
  1 20 34     868.00000000       0.00482985       5.00000000       1.00000000
  1 20 35     868.00000000       0.00482985       5.00000000       1.00000000
  1 20 36     868.00000000       0.00482985       5.00000000       1.00000000
  1 20 37     869.00000000       0.00482985       5.00000000       1.00000000
  1 20 38     869.00000000       0.00482985       5.00000000       1.00000000
  1 20 44     869.00000000       0.00482985       5.00000000       1.00000000
  1 20 45     868.00000000       0.00482985       5.00000000       1.00000000
  1 20 46     869.00000000       0.00482985       5.00000000       1.00000000
  1 21 19     868.00000000       0.00482985       5.00000000       1.00000000
  1 21 20     868.00000000       0.00482985       5.00000000       1.00000000
  1 21 21     868.00000000       0.00482985       5.00000000       1.00000000
  1 21 22     868.00000000       0.00482985       5.00000000       1.00000000
  1 21 23     868.00000000       0.00482985       5.00000000       1.00000000
  1 21 24     868.00000000       0.00482985       5.00000000       1.00000000
  1 21 25     868.00000000       0.00482985       5.00000000       1.00000000
  1 21 26     868.00000000       0.00482985       5.00000000       1.00000000
  1 21 27     868.00000000       0.00482985       5.00000000       1.00000000
  1 21 28     868.00000000       0.00482985       5.00000000       1.00000000
  1 21 29     868.00000000       0.00482985       5.00000000       1.00000000
  1 21 30     868.00000000       0.00482985       5.00000000       1.00000000
  1 21 31     868.00000000       0.00482985       5.00000000       1.00000000
  1 21 32     868.00000000       0.00482985       5.00000000       1.00000000
  1 21 33     868.00000000       0.00482985       5.00000000       1.00000000
  1 21 34     868.00000000       0.00482985       5.00000000       1.00000000
  1 21 35     868.00000000       0.00482985       5.00000000       1.00000000
  1 21 36     868.00000000       0.00482985       5.00000000       1.00000000
  1 21 37     868.00000000       0.00482985       5.00000000       1.00000000
  1 21 38     869.00000000       0.00482985       5.00000000       1.00000000
  1 21 39     869.00000000       0.00482985       5.00000000       1.00000000
  1 21 40     869.00000000       0.00482985       5.00000000       1.00000000
  1 21 42     869.00000000       0.00482985       5.00000000       1.00000000
  1 21 43     869.00000000       0.00482985       5.00000000       1.00000000
  1 21 44     868.00000000       0.00482985       5.00000000       1.00000000
  1 21 45     868.00000000       0.00482985       5.00000000       1.00000000
  1 21 46     869.00000000       0.00482985       5.00000000       1.00000000
  1 21 47     869.00000000       0.00482985       5.00000000       1.00000000
  1 22 18     868.00000000       0.00482985       5.00000000       1.00000000
  1 22 19     868.00000000       0.00482985       5.00000000       1.00000000
  1 22 20     868.00000000       0.00482985       5.00000000       1.00000000
  1 22 21     868.00000000       0.00482985       5.00000000       1.00000000
  1 22 22     868.00000000       0.00482985       5.00000000       1.00000000
  1 22 23     868.00000000       0.00482985       5.00000000       1.00000000
  1 22 24     868.00000000       0.00482985       5.00000000       1.00000000
  1 22 25     868.00000000       0.00482985       5.00000000       1.00000000
  1 22 26     868.00000000       0.00482985       5.00000000       1.00000000
  1 22 27     868.00000000       0.00482985       5.00000000       1.00000000
  1 22 28     868.00000000       0.00482985       5.00000000       1.00000000
  1 22 29     868.00000000       0.00482985       5.00000000       1.00000000
  1 22 30     868.00000000       0.00482985       5.00000000       1.00000000
  1 22 31     868.00000000       0.00482985       5.00000000       1.00000000
  1 22 32     868.00000000       0.00482985       5.00000000       1.00000000
  1 22 33     868.00000000       0.00482985       5.00000000       1.00000000
  1 22 34     868.00000000       0.00482985       5.00000000       1.00000000
  1 22 35     868.00000000       0.00482985       5.00000000       1.00000000
  1 22 36     868.00000000       0.00482985       5.00000000       1.00000000
  1 22 37     868.00000000       0.00482985       5.00000000       1.00000000
  1 22 38     868.00000000       0.00482985       5.00000000       1.00000000
  1 22 39     868.00000000       0.00482985       5.00000000       1.00000000
  1 22 40     868.00000000       0.00482985       5.00000000       1.00000000
  1 22 41     868.00000000       0.00482985       5.00000000       1.00000000
  1 22 42     868.00000000       0.00482985       5.00000000       1.00000000
  1 22 43     868.00000000       0.00482985       5.00000000       1.00000000
  1 22 44     868.00000000       0.00482985       5.00000000       1.00000000
  1 22 45     868.00000000       0.00482985       5.00000000       1.00000000
  1 22 46     868.00000000       0.00482985       5.00000000       1.00000000
  1 22 47     869.00000000       0.00482985       5.00000000       1.00000000
  1 23 17     868.00000000       0.00482985       5.00000000       1.00000000
  1 23 18     868.00000000       0.00482985       5.00000000       1.00000000
  1 23 19     868.00000000       0.00482985       5.00000000       1.00000000
  1 23 20     868.00000000       0.00482985       5.00000000       1.00000000
  1 23 21     868.00000000       0.00482985       5.00000000       1.00000000
  1 23 22     868.00000000       0.00482985       5.00000000       1.00000000
  1 23 23     868.00000000       0.00482985       5.00000000       1.00000000
  1 23 24     868.00000000       0.00482985       5.00000000       1.00000000
  1 23 25     868.00000000       0.00482985       5.00000000       1.00000000
  1 23 26     868.00000000       0.00482985       5.00000000       1.00000000
  1 23 27     868.00000000       0.00482985       5.00000000       1.00000000
  1 23 28     868.00000000       0.00482985       5.00000000       1.00000000
  1 23 29     868.00000000       0.00482985       5.00000000       1.00000000
  1 23 30     868.00000000       0.00482985       5.00000000       1.00000000
  1 23 31     868.00000000       0.00482985       5.00000000       1.00000000
  1 23 32     868.00000000       0.00482985       5.00000000       1.00000000
  1 23 33     868.00000000       0.00482985       5.00000000       1.00000000
  1 23 34     868.00000000       0.00482985       5.00000000       1.00000000
  1 23 35     868.00000000       0.00482985       5.00000000       1.00000000
  1 23 36     868.00000000       0.00482985       5.00000000       1.00000000
  1 23 37     868.00000000       0.00482985       5.00000000       1.00000000
  1 23 38     868.00000000       0.00482985       5.00000000       1.00000000
  1 23 39     868.00000000       0.00482985       5.00000000       1.00000000
  1 23 40     868.00000000       0.00482985       5.00000000       1.00000000
  1 23 41     868.00000000       0.00482985       5.00000000       1.00000000
  1 23 42     868.00000000       0.00482985       5.00000000       1.00000000
  1 23 43     868.00000000       0.00482985       5.00000000       1.00000000
  1 23 44     868.00000000       0.00482985       5.00000000       1.00000000
  1 23 45     868.00000000       0.00482985       5.00000000       1.00000000
  1 23 46     868.00000000       0.00482985       5.00000000       1.00000000
  1 23 47     869.00000000       0.00482985       5.00000000       1.00000000
  1 24 16     869.00000000       0.00482985       5.00000000       1.00000000
  1 24 17     868.00000000       0.00482985       5.00000000       1.00000000
  1 24 18     868.00000000       0.00482985       5.00000000       1.00000000
  1 24 19     868.00000000       0.00482985       5.00000000       1.00000000
  1 24 20     868.00000000       0.00482985       5.00000000       1.00000000
  1 24 21     868.00000000       0.00482985       5.00000000       1.00000000
  1 24 22     868.00000000       0.00482985       5.00000000       1.00000000
  1 24 23     868.00000000       0.00482985       5.00000000       1.00000000
  1 24 24     868.00000000       0.00482985       5.00000000       1.00000000
  1 24 25     868.00000000       0.00482985       5.00000000       1.00000000
  1 24 26     868.00000000       0.00482985       5.00000000       1.00000000
  1 24 27     868.00000000       0.00482985       5.00000000       1.00000000
  1 24 28     868.00000000       0.00482985       5.00000000       1.00000000
  1 24 29     868.00000000       0.00482985       5.00000000       1.00000000
  1 24 30     868.00000000       0.00482985       5.00000000       1.00000000
  1 24 31     868.00000000       0.00482985       5.00000000       1.00000000
  1 24 32     868.00000000       0.00482985       5.00000000       1.00000000
  1 24 33     868.00000000       0.00482985       5.00000000       1.00000000
  1 24 34     868.00000000       0.00482985       5.00000000       1.00000000
  1 24 35     868.00000000       0.00482985       5.00000000       1.00000000
  1 24 36     868.00000000       0.00482985       5.00000000       1.00000000
  1 24 37     868.00000000       0.00482985       5.00000000       1.00000000
  1 24 38     868.00000000       0.00482985       5.00000000       1.00000000
  1 24 39     868.00000000       0.00482985       5.00000000       1.00000000
  1 24 40     868.00000000       0.00482985       5.00000000       1.00000000
  1 24 41     868.00000000       0.00482985       5.00000000       1.00000000
  1 24 42     868.00000000       0.00482985       5.00000000       1.00000000
  1 24 43     868.00000000       0.00482985       5.00000000       1.00000000
  1 24 44     868.00000000       0.00482985       5.00000000       1.00000000
  1 24 45     868.00000000       0.00482985       5.00000000       1.00000000
  1 24 46     868.00000000       0.00482985       5.00000000       1.00000000
  1 24 47     869.00000000       0.00482985       5.00000000       1.00000000
  1 25 14     870.00000000       0.00482985       5.00000000       1.00000000
  1 25 15     869.00000000       0.00482985       5.00000000       1.00000000
  1 25 16     868.00000000       0.00482985       5.00000000       1.00000000
  1 25 17     868.00000000       0.00482985       5.00000000       1.00000000
  1 25 18     868.00000000       0.00482985       5.00000000       1.00000000
  1 25 19     868.00000000       0.00482985       5.00000000       1.00000000
  1 25 20     868.00000000       0.00482985       5.00000000       1.00000000
  1 25 21     868.00000000       0.00482985       5.00000000       1.00000000
  1 25 22     868.00000000       0.00482985       5.00000000       1.00000000
  1 25 23     868.00000000       0.00482985       5.00000000       1.00000000
  1 25 24     868.00000000       0.00482985       5.00000000       1.00000000
  1 25 25     868.00000000       0.00482985       5.00000000       1.00000000
  1 25 26     868.00000000       0.00482985       5.00000000       1.00000000
  1 25 27     868.00000000       0.00482985       5.00000000       1.00000000
  1 25 28     868.00000000       0.00482985       5.00000000       1.00000000
  1 25 29     868.00000000       0.00482985       5.00000000       1.00000000
  1 25 30     868.00000000       0.00482985       5.00000000       1.00000000
  1 25 31     868.00000000       0.00482985       5.00000000       1.00000000
  1 25 32     868.00000000       0.00482985       5.00000000       1.00000000
  1 25 33     868.00000000       0.00482985       5.00000000       1.00000000
  1 25 34     868.00000000       0.00482985       5.00000000       1.00000000
  1 25 35     868.00000000       0.00482985       5.00000000       1.00000000
  1 25 36     868.00000000       0.00482985       5.00000000       1.00000000
  1 25 37     868.00000000       0.00482985       5.00000000       1.00000000
  1 25 38     868.00000000       0.00482985       5.00000000       1.00000000
  1 25 39     868.00000000       0.00482985       5.00000000       1.00000000
  1 25 40     868.00000000       0.00482985       5.00000000       1.00000000
  1 25 41     868.00000000       0.00482985       5.00000000       1.00000000
  1 25 42     868.00000000       0.00482985       5.00000000       1.00000000
  1 25 43     868.00000000       0.00482985       5.00000000       1.00000000
  1 25 44     868.00000000       0.00482985       5.00000000       1.00000000
  1 25 45     869.00000000       0.00482985       5.00000000       1.00000000
  1 25 46     869.00000000       0.00482985       5.00000000       1.00000000
  1 25 47     869.00000000       0.00482985       5.00000000       1.00000000
  1 26 14     868.00000000       0.00482985       5.00000000       1.00000000
  1 26 15     868.00000000       0.00482985       5.00000000       1.00000000
  1 26 16     868.00000000       0.00482985       5.00000000       1.00000000
  1 26 17     868.00000000       0.00482985       5.00000000       1.00000000
  1 26 18     868.00000000       0.00482985       5.00000000       1.00000000
  1 26 19     868.00000000       0.00482985       5.00000000       1.00000000
  1 26 20     868.00000000       0.00482985       5.00000000       1.00000000
  1 26 21     868.00000000       0.00482985       5.00000000       1.00000000
  1 26 22     868.00000000       0.00482985       5.00000000       1.00000000
  1 26 23     868.00000000       0.00482985       5.00000000       1.00000000
  1 26 24     868.00000000       0.00482985       5.00000000       1.00000000
  1 26 25     868.00000000       0.00482985       5.00000000       1.00000000
  1 26 26     868.00000000       0.00482985       5.00000000       1.00000000
  1 26 27     868.00000000       0.00482985       5.00000000       1.00000000
  1 26 28     868.00000000       0.00482985       5.00000000       1.00000000
  1 26 29     868.00000000       0.00482985       5.00000000       1.00000000
  1 26 30     868.00000000       0.00482985       5.00000000       1.00000000
  1 26 31     868.00000000       0.00482985       5.00000000       1.00000000
  1 26 32     868.00000000       0.00482985       5.00000000       1.00000000
  1 26 33     868.00000000       0.00482985       5.00000000       1.00000000
  1 26 34     868.00000000       0.00482985       5.00000000       1.00000000
  1 26 35     868.00000000       0.00482985       5.00000000       1.00000000
  1 26 36     868.00000000       0.00482985       5.00000000       1.00000000
  1 26 37     868.00000000       0.00482985       5.00000000       1.00000000
  1 26 38     868.00000000       0.00482985       5.00000000       1.00000000
  1 26 39     868.00000000       0.00482985       5.00000000       1.00000000
  1 26 40     868.00000000       0.00482985       5.00000000       1.00000000
  1 26 41     868.00000000       0.00482985       5.00000000       1.00000000
  1 26 42     868.00000000       0.00482985       5.00000000       1.00000000
  1 26 43     868.00000000       0.00482985       5.00000000       1.00000000
  1 26 44     869.00000000       0.00482985       5.00000000       1.00000000
  1 27 12     870.00000000       0.00482985       5.00000000       1.00000000
  1 27 13     869.00000000       0.00482985       5.00000000       1.00000000
  1 27 14     868.00000000       0.00482985       5.00000000       1.00000000
  1 27 15     868.00000000       0.00482985       5.00000000       1.00000000
  1 27 16     868.00000000       0.00482985       5.00000000       1.00000000
  1 27 17     868.00000000       0.00482985       5.00000000       1.00000000
  1 27 18     868.00000000       0.00482985       5.00000000       1.00000000
  1 27 19     868.00000000       0.00482985       5.00000000       1.00000000
  1 27 20     868.00000000       0.00482985       5.00000000       1.00000000
  1 27 21     868.00000000       0.00482985       5.00000000       1.00000000
  1 27 22     868.00000000       0.00482985       5.00000000       1.00000000
  1 27 23     868.00000000       0.00482985       5.00000000       1.00000000
  1 27 24     868.00000000       0.00482985       5.00000000       1.00000000
  1 27 25     868.00000000       0.00482985       5.00000000       1.00000000
  1 27 26     868.00000000       0.00482985       5.00000000       1.00000000
  1 27 27     868.00000000       0.00482985       5.00000000       1.00000000
  1 27 28     868.00000000       0.00482985       5.00000000       1.00000000
  1 27 29     868.00000000       0.00482985       5.00000000       1.00000000
  1 27 30     868.00000000       0.00482985       5.00000000       1.00000000
  1 27 31     868.00000000       0.00482985       5.00000000       1.00000000
  1 27 32     868.00000000       0.00482985       5.00000000       1.00000000
  1 27 33     868.00000000       0.00482985       5.00000000       1.00000000