# File generated by Flopy version 3.3.7 on 07/11/2023 at 18:13:41.
BEGIN options
END options

BEGIN dimensions
  MAXBOUND  624
END dimensions

BEGIN period  1
  1 97 100  1.56019856E-04
  1 97 101  1.56019856E-04
  1 97 102  1.56019856E-04
  1 97 103  1.56019856E-04
  1 97 104  1.56019856E-04
  1 98 99  1.56019856E-04
  1 98 100  1.56019856E-04
  1 98 101  1.56019856E-04
  1 98 102  1.56019856E-04
  1 98 103  1.56019856E-04
  1 98 104  1.56019856E-04
  1 98 105  1.56019856E-04
  1 99 72  1.56019856E-04
  1 99 73  1.56019856E-04
  1 99 74  1.56019856E-04
  1 99 75  1.56019856E-04
  1 99 76  1.56019856E-04
  1 99 77  1.56019856E-04
  1 99 78  1.56019856E-04
  1 99 79  1.56019856E-04
  1 99 98  1.56019856E-04
  1 99 99  1.56019856E-04
  1 99 100  1.56019856E-04
  1 99 101  1.56019856E-04
  1 99 102  1.56019856E-04
  1 99 103  1.56019856E-04
  1 99 104  1.56019856E-04
  1 99 105  1.56019856E-04
  1 99 106  1.56019856E-04
  1 99 107  1.56019856E-04
  1 99 108  1.56019856E-04
  1 99 109  1.56019856E-04
  1 100 70  1.56019856E-04
  1 100 71  1.56019856E-04
  1 100 72  1.56019856E-04
  1 100 73  1.56019856E-04
  1 100 74  1.56019856E-04
  1 100 75  1.56019856E-04
  1 100 76  1.56019856E-04
  1 100 77  1.56019856E-04
  1 100 78  1.56019856E-04
  1 100 79  1.56019856E-04
  1 100 80  1.56019856E-04
  1 100 81  1.56019856E-04
  1 100 94  1.56019856E-04
  1 100 95  1.56019856E-04
  1 100 96  1.56019856E-04
  1 100 97  1.56019856E-04
  1 100 98  1.56019856E-04
  1 100 99  1.56019856E-04
  1 100 100  1.56019856E-04
  1 100 101  1.56019856E-04
  1 100 102  1.56019856E-04
  1 100 103  1.56019856E-04
  1 100 104  1.56019856E-04
  1 100 105  1.56019856E-04
  1 100 106  1.56019856E-04
  1 100 107  1.56019856E-04
  1 100 108  1.56019856E-04
  1 100 109  1.56019856E-04
  1 101 69  1.56019856E-04
  1 101 70  1.56019856E-04
  1 101 71  1.56019856E-04
  1 101 72  1.56019856E-04
  1 101 73  1.56019856E-04
  1 101 74  1.56019856E-04
  1 101 75  1.56019856E-04
  1 101 76  1.56019856E-04
  1 101 77  1.56019856E-04
  1 101 78  1.56019856E-04
  1 101 79  1.56019856E-04
  1 101 80  1.56019856E-04
  1 101 81  1.56019856E-04
  1 101 82  1.56019856E-04
  1 101 83  1.56019856E-04
  1 101 84  1.56019856E-04
  1 101 92  1.56019856E-04
  1 101 93  1.56019856E-04
  1 101 94  1.56019856E-04
  1 101 95  1.56019856E-04
  1 101 96  1.56019856E-04
  1 101 97  1.56019856E-04
  1 101 98  1.56019856E-04
  1 101 99  1.56019856E-04
  1 101 100  1.56019856E-04
  1 101 101  1.56019856E-04
  1 101 102  1.56019856E-04
  1 101 103  1.56019856E-04
  1 101 104  1.56019856E-04
  1 101 105  1.56019856E-04
  1 101 106  1.56019856E-04
  1 101 107  1.56019856E-04
  1 101 108  1.56019856E-04
  1 101 109  1.56019856E-04
  1 102 69  1.56019856E-04
  1 102 70  1.56019856E-04
  1 102 71  1.56019856E-04
  1 102 72  1.56019856E-04
  1 102 73  1.56019856E-04
  1 102 74  1.56019856E-04
  1 102 75  1.56019856E-04
  1 102 76  1.56019856E-04
  1 102 77  1.56019856E-04
  1 102 78  1.56019856E-04
  1 102 79  1.56019856E-04
  1 102 80  1.56019856E-04
  1 102 81  1.56019856E-04
  1 102 82  1.56019856E-04
  1 102 83  1.56019856E-04
  1 102 84  1.56019856E-04
  1 102 85  1.56019856E-04
  1 102 86  1.56019856E-04
  1 102 87  1.56019856E-04
  1 102 88  1.56019856E-04
  1 102 89  1.56019856E-04
  1 102 90  1.56019856E-04
  1 102 91  1.56019856E-04
  1 102 92  1.56019856E-04
  1 102 93  1.56019856E-04
  1 102 94  1.56019856E-04
  1 102 95  1.56019856E-04
  1 102 96  1.56019856E-04
  1 102 97  1.56019856E-04
  1 102 98  1.56019856E-04
  1 102 99  1.56019856E-04
  1 102 100  1.56019856E-04
  1 102 101  1.56019856E-04
  1 102 102  1.56019856E-04
  1 102 103  1.56019856E-04
  1 102 104  1.56019856E-04
  1 102 105  1.56019856E-04
  1 102 106  1.56019856E-04
  1 102 107  1.56019856E-04
  1 102 108  1.56019856E-04
  1 102 109  1.56019856E-04
  1 103 68  1.56019856E-04
  1 103 69  1.56019856E-04
  1 103 70  1.56019856E-04
  1 103 71  1.56019856E-04
  1 103 72  1.56019856E-04
  1 103 73  1.56019856E-04
  1 103 74  1.56019856E-04
  1 103 75  1.56019856E-04
  1 103 76  1.56019856E-04
  1 103 77  1.56019856E-04
  1 103 78  1.56019856E-04
  1 103 79  1.56019856E-04
  1 103 80  1.56019856E-04
  1 103 81  1.56019856E-04
  1 103 82  1.56019856E-04
  1 103 83  1.56019856E-04
  1 103 84  1.56019856E-04
  1 103 85  1.56019856E-04
  1 103 86  1.56019856E-04
  1 103 87  1.56019856E-04
  1 103 88  1.56019856E-04
  1 103 89  1.56019856E-04
  1 103 90  1.56019856E-04
  1 103 91  1.56019856E-04
  1 103 92  1.56019856E-04
  1 103 93  1.56019856E-04
  1 103 94  1.56019856E-04
  1 103 95  1.56019856E-04
  1 103 96  1.56019856E-04
  1 103 97  1.56019856E-04
  1 103 98  1.56019856E-04
  1 103 99  1.56019856E-04
  1 103 100  1.56019856E-04
  1 103 101  1.56019856E-04
  1 103 102  1.56019856E-04
  1 103 103  1.56019856E-04
  1 103 104  1.56019856E-04
  1 103 105  1.56019856E-04
  1 103 106  1.56019856E-04
  1 103 107  1.56019856E-04
  1 103 108  1.56019856E-04
  1 103 109  1.56019856E-04
  1 104 67  1.56019856E-04
  1 104 68  1.56019856E-04
  1 104 69  1.56019856E-04
  1 104 70  1.56019856E-04
  1 104 71  1.56019856E-04
  1 104 72  1.56019856E-04
  1 104 73  1.56019856E-04
  1 104 74  1.56019856E-04
  1 104 75  1.56019856E-04
  1 104 76  1.56019856E-04
  1 104 77  1.56019856E-04
  1 104 78  1.56019856E-04
  1 104 79  1.56019856E-04
  1 104 80  1.56019856E-04
  1 104 81  1.56019856E-04
  1 104 82  1.56019856E-04
  1 104 83  1.56019856E-04
  1 104 84  1.56019856E-04
  1 104 85  1.56019856E-04
  1 104 86  1.56019856E-04
  1 104 87  1.56019856E-04
  1 104 88  1.56019856E-04
  1 104 89  1.56019856E-04
  1 104 90  1.56019856E-04
  1 104 91  1.56019856E-04
  1 104 92  1.56019856E-04
  1 104 93  1.56019856E-04
  1 104 94  1.56019856E-04
  1 104 95  1.56019856E-04
  1 104 96  1.56019856E-04
  1 104 97  1.56019856E-04
  1 104 98  1.56019856E-04
  1 104 99  1.56019856E-04
  1 104 100  1.56019856E-04
  1 104 101  1.56019856E-04
  1 104 102  1.56019856E-04
  1 104 103  1.56019856E-04
  1 104 104  1.56019856E-04
  1 104 105  1.56019856E-04
  1 104 106  1.56019856E-04
  1 104 107  1.56019856E-04
  1 104 108  1.56019856E-04
  1 104 109  1.56019856E-04
  1 105 61  1.56019856E-04
  1 105 62  1.56019856E-04
  1 105 63  1.56019856E-04
  1 105 64  1.56019856E-04
  1 105 65  1.56019856E-04
  1 105 66  1.56019856E-04
  1 105 67  1.56019856E-04
  1 105 68  1.56019856E-04
  1 105 69  1.56019856E-04
  1 105 70  1.56019856E-04
  1 105 71  1.56019856E-04
  1 105 72  1.56019856E-04
  1 105 73  1.56019856E-04
  1 105 74  1.56019856E-04
  1 105 75  1.56019856E-04
  1 105 76  1.56019856E-04
  1 105 77  1.56019856E-04
  1 105 78  1.56019856E-04
  1 105 79  1.56019856E-04
  1 105 80  1.56019856E-04
  1 105 81  1.56019856E-04
  1 105 82  1.56019856E-04
  1 105 83  1.56019856E-04
  1 105 84  1.56019856E-04
  1 105 85  1.56019856E-04
  1 105 86  1.56019856E-04
  1 105 87  1.56019856E-04
  1 105 88  1.56019856E-04
  1 105 89  1.56019856E-04
  1 105 90  1.56019856E-04
  1 105 91  1.56019856E-04
  1 105 92  1.56019856E-04
  1 105 93  1.56019856E-04
  1 105 94  1.56019856E-04
  1 105 95  1.56019856E-04
  1 105 96  1.56019856E-04
  1 105 97  1.56019856E-04
  1 105 98  1.56019856E-04
  1 105 99  1.56019856E-04
  1 105 100  1.56019856E-04
  1 105 101  1.56019856E-04
  1 105 102  1.56019856E-04
  1 105 103  1.56019856E-04
  1 105 104  1.56019856E-04
  1 105 105  1.56019856E-04
  1 105 106  1.56019856E-04
  1 105 107  1.56019856E-04
  1 105 108  1.56019856E-04
  1 105 109  1.56019856E-04
  1 106 63  1.56019856E-04
  1 106 64  1.56019856E-04
  1 106 65  1.56019856E-04
  1 106 66  1.56019856E-04
  1 106 67  1.56019856E-04
  1 106 68  1.56019856E-04
  1 106 69  1.56019856E-04
  1 106 70  1.56019856E-04
  1 106 71  1.56019856E-04
  1 106 72  1.56019856E-04
  1 106 73  1.56019856E-04
  1 106 74  1.56019856E-04
  1 106 75  1.56019856E-04
  1 106 76  1.56019856E-04
  1 106 77  1.56019856E-04
  1 106 78  1.56019856E-04
  1 106 79  1.56019856E-04
  1 106 80  1.56019856E-04
  1 106 81  1.56019856E-04
  1 106 82  1.56019856E-04
  1 106 83  1.56019856E-04
  1 106 84  1.56019856E-04
  1 106 85  1.56019856E-04
  1 106 86  1.56019856E-04
  1 106 87  1.56019856E-04
  1 106 88  1.56019856E-04
  1 106 89  1.56019856E-04
  1 106 90  1.56019856E-04
  1 106 91  1.56019856E-04
  1 106 92  1.56019856E-04
  1 106 93  1.56019856E-04
  1 106 94  1.56019856E-04
  1 106 95  1.56019856E-04
  1 106 96  1.56019856E-04
  1 106 97  1.56019856E-04
  1 106 98  1.56019856E-04
  1 106 99  1.56019856E-04
  1 106 100  1.56019856E-04
  1 106 101  1.56019856E-04
  1 106 102  1.56019856E-04
  1 106 103  1.56019856E-04
  1 106 104  1.56019856E-04
  1 106 105  1.56019856E-04
  1 106 106  1.56019856E-04
  1 106 107  1.56019856E-04
  1 106 108  1.56019856E-04
  1 106 109  1.56019856E-04
  1 107 64  1.56019856E-04
  1 107 65  1.56019856E-04
  1 107 66  1.56019856E-04
  1 107 67  1.56019856E-04
  1 107 68  1.56019856E-04
  1 107 69  1.56019856E-04
  1 107 70  1.56019856E-04
  1 107 71  1.56019856E-04
  1 107 72  1.56019856E-04
  1 107 73  1.56019856E-04
  1 107 74  1.56019856E-04
  1 107 75  1.56019856E-04
  1 107 76  1.56019856E-04
  1 107 77  1.56019856E-04
  1 107 78  1.56019856E-04
  1 107 79  1.56019856E-04
  1 107 80  1.56019856E-04
  1 107 81  1.56019856E-04
  1 107 82  1.56019856E-04
  1 107 83  1.56019856E-04
  1 107 84  1.56019856E-04
  1 107 85  1.56019856E-04
  1 107 86  1.56019856E-04
  1 107 87  1.56019856E-04
  1 107 88  1.56019856E-04
  1 107 89  1.56019856E-04
  1 107 90  1.56019856E-04
  1 107 91  1.56019856E-04
  1 107 92  1.56019856E-04
  1 107 93  1.56019856E-04
  1 107 94  1.56019856E-04
  1 107 95  1.56019856E-04
  1 107 96  1.56019856E-04
  1 107 97  1.56019856E-04
  1 107 98  1.56019856E-04
  1 107 99  1.56019856E-04
  1 107 100  1.56019856E-04
  1 107 101  1.56019856E-04
  1 107 102  1.56019856E-04
  1 107 103  1.56019856E-04
  1 107 104  1.56019856E-04
  1 107 105  1.56019856E-04
  1 107 106  1.56019856E-04
  1 107 107  1.56019856E-04
  1 107 108  1.56019856E-04
  1 107 109  1.56019856E-04
  1 108 66  1.56019856E-04
  1 108 67  1.56019856E-04
  1 108 68  1.56019856E-04
  1 108 69  1.56019856E-04
  1 108 70  1.56019856E-04
  1 108 71  1.56019856E-04
  1 108 72  1.56019856E-04
  1 108 73  1.56019856E-04
  1 108 74  1.56019856E-04
  1 108 75  1.56019856E-04
  1 108 76  1.56019856E-04
  1 108 77  1.56019856E-04
  1 108 78  1.56019856E-04
  1 108 79  1.56019856E-04
  1 108 80  1.56019856E-04
  1 108 81  1.56019856E-04
  1 108 82  1.56019856E-04
  1 108 83  1.56019856E-04
  1 108 84  1.56019856E-04
  1 108 85  1.56019856E-04
  1 108 86  1.56019856E-04
  1 108 87  1.56019856E-04
  1 108 88  1.56019856E-04
  1 108 89  1.56019856E-04
  1 108 90  1.56019856E-04
  1 108 91  1.56019856E-04
  1 108 92  1.56019856E-04
  1 108 93  1.56019856E-04
  1 108 94  1.56019856E-04
  1 108 95  1.56019856E-04
  1 108 96  1.56019856E-04
  1 108 97  1.56019856E-04
  1 108 98  1.56019856E-04
  1 108 99  1.56019856E-04
  1 108 100  1.56019856E-04
  1 108 101  1.56019856E-04
  1 108 102  1.56019856E-04
  1 108 103  1.56019856E-04
  1 108 104  1.56019856E-04
  1 108 105  1.56019856E-04
  1 108 106  1.56019856E-04
  1 108 107  1.56019856E-04
  1 108 108  1.56019856E-04
  1 109 67  1.56019856E-04
  1 109 68  1.56019856E-04
  1 109 69  1.56019856E-04
  1 109 70  1.56019856E-04
  1 109 71  1.56019856E-04
  1 109 72  1.56019856E-04
  1 109 73  1.56019856E-04
  1 109 74  1.56019856E-04
  1 109 75  1.56019856E-04
  1 109 76  1.56019856E-04
  1 109 77  1.56019856E-04
  1 109 78  1.56019856E-04
  1 109 79  1.56019856E-04
  1 109 80  1.56019856E-04
  1 109 81  1.56019856E-04
  1 109 82  1.56019856E-04
  1 109 83  1.56019856E-04
  1 109 84  1.56019856E-04
  1 109 85  1.56019856E-04
  1 109 86  1.56019856E-04
  1 109 87  1.56019856E-04
  1 109 88  1.56019856E-04
  1 109 89  1.56019856E-04
  1 109 90  1.56019856E-04
  1 109 91  1.56019856E-04
  1 109 92  1.56019856E-04
  1 109 93  1.56019856E-04
  1 109 94  1.56019856E-04
  1 109 95  1.56019856E-04
  1 109 96  1.56019856E-04
  1 109 97  1.56019856E-04
  1 109 98  1.56019856E-04
  1 109 99  1.56019856E-04
  1 109 100  1.56019856E-04
  1 109 101  1.56019856E-04
  1 109 102  1.56019856E-04
  1 109 103  1.56019856E-04
  1 109 104  1.56019856E-04
  1 109 105  1.56019856E-04
  1 109 106  1.56019856E-04
  1 109 107  1.56019856E-04
  1 109 108  1.56019856E-04
  1 110 68  1.56019856E-04
  1 110 69  1.56019856E-04
  1 110 70  1.56019856E-04
  1 110 71  1.56019856E-04
  1 110 72  1.56019856E-04
  1 110 73  1.56019856E-04
  1 110 74  1.56019856E-04
  1 110 75  1.56019856E-04
  1 110 76  1.56019856E-04
  1 110 77  1.56019856E-04
  1 110 78  1.56019856E-04
  1 110 79  1.56019856E-04
  1 110 80  1.56019856E-04
  1 110 81  1.56019856E-04
  1 110 82  1.56019856E-04
  1 110 83  1.56019856E-04
  1 110 84  1.56019856E-04
  1 110 85  1.56019856E-04
  1 110 86  1.56019856E-04
  1 110 87  1.56019856E-04
  1 110 88  1.56019856E-04
  1 110 89  1.56019856E-04
  1 110 90  1.56019856E-04
  1 110 91  1.56019856E-04
  1 110 92  1.56019856E-04
  1 110 93  1.56019856E-04
  1 110 94  1.56019856E-04
  1 110 95  1.56019856E-04
  1 110 96  1.56019856E-04
  1 110 97  1.56019856E-04
  1 110 98  1.56019856E-04
  1 110 99  1.56019856E-04
  1 110 100  1.56019856E-04
  1 110 101  1.56019856E-04
  1 110 102  1.56019856E-04
  1 110 103  1.56019856E-04
  1 110 104  1.56019856E-04
  1 110 105  1.56019856E-04
  1 110 106  1.56019856E-04
  1 110 107  1.56019856E-04
  1 110 108  1.56019856E-04
  1 111 70  1.56019856E-04
  1 111 71  1.56019856E-04
  1 111 72  1.56019856E-04
  1 111 73  1.56019856E-04
  1 111 74  1.56019856E-04
  1 111 75  1.56019856E-04
  1 111 76  1.56019856E-04
  1 111 77  1.56019856E-04
  1 111 78  1.56019856E-04
  1 111 79  1.56019856E-04
  1 111 80  1.56019856E-04
  1 111 81  1.56019856E-04
  1 111 82  1.56019856E-04
  1 111 83  1.56019856E-04
  1 111 84  1.56019856E-04
  1 111 85  1.56019856E-04
  1 111 86  1.56019856E-04
  1 111 87  1.56019856E-04
  1 111 88  1.56019856E-04
  1 111 89  1.56019856E-04
  1 111 90  1.56019856E-04
  1 111 91  1.56019856E-04
  1 111 92  1.56019856E-04
  1 111 93  1.56019856E-04
  1 111 94  1.56019856E-04
  1 111 95  1.56019856E-04
  1 111 96  1.56019856E-04
  1 111 97  1.56019856E-04
  1 111 98  1.56019856E-04
  1 111 99  1.56019856E-04
  1 111 100  1.56019856E-04
  1 111 101  1.56019856E-04
  1 111 102  1.56019856E-04
  1 111 103  1.56019856E-04
  1 111 104  1.56019856E-04
  1 111 105  1.56019856E-04
  1 111 106  1.56019856E-04
  1 111 107  1.56019856E-04
  1 111 108  1.56019856E-04
  1 112 71  1.56019856E-04
  1 112 72  1.56019856E-04
  1 112 73  1.56019856E-04
  1 112 74  1.56019856E-04
  1 112 75  1.56019856E-04
  1 112 76  1.56019856E-04
  1 112 77  1.56019856E-04
  1 112 78  1.56019856E-04
  1 112 79  1.56019856E-04
  1 112 80  1.56019856E-04
  1 112 81  1.56019856E-04
  1 112 82  1.56019856E-04
  1 112 83  1.56019856E-04
  1 112 84  1.56019856E-04
  1 112 85  1.56019856E-04
  1 112 86  1.56019856E-04
  1 112 87  1.56019856E-04
  1 112 88  1.56019856E-04
  1 112 89  1.56019856E-04
  1 112 90  1.56019856E-04
  1 112 91  1.56019856E-04
  1 112 92  1.56019856E-04
  1 112 93  1.56019856E-04
  1 112 94  1.56019856E-04
  1 112 95  1.56019856E-04
  1 112 96  1.56019856E-04
  1 112 97  1.56019856E-04
  1 112 98  1.56019856E-04
  1 112 99  1.56019856E-04
  1 112 100  1.56019856E-04
  1 112 101  1.56019856E-04
  1 112 102  1.56019856E-04
  1 112 103  1.56019856E-04
  1 112 104  1.56019856E-04
  1 112 105  1.56019856E-04
  1 112 106  1.56019856E-04
  1 112 107  1.56019856E-04
  1 113 73  1.56019856E-04
  1 113 74  1.56019856E-04
  1 113 75  1.56019856E-04
  1 113 76  1.56019856E-04
  1 113 77  1.56019856E-04
  1 113 78  1.56019856E-04
  1 113 79  1.56019856E-04
  1 113 80  1.56019856E-04
  1 113 81  1.56019856E-04
  1 113 82  1.56019856E-04
  1 113 83  1.56019856E-04
  1 113 84  1.56019856E-04
  1 113 85  1.56019856E-04
  1 113 86  1.56019856E-04
  1 113 87  1.56019856E-04
  1 113 88  1.56019856E-04
  1 113 89  1.56019856E-04
  1 113 90  1.56019856E-04
  1 113 91  1.56019856E-04
  1 113 92  1.56019856E-04
  1 113 93  1.56019856E-04
  1 113 94  1.56019856E-04
  1 113 95  1.56019856E-04
  1 113 96  1.56019856E-04
  1 113 97  1.56019856E-04
  1 113 98  1.56019856E-04
  1 113 99  1.56019856E-04
  1 113 100  1.56019856E-04
  1 113 101  1.56019856E-04
  1 113 102  1.56019856E-04
  1 113 103  1.56019856E-04
  1 113 104  1.56019856E-04
  1 113 105  1.56019856E-04
  1 113 106  1.56019856E-04
  1 114 74  1.56019856E-04
  1 114 75  1.56019856E-04
  1 114 76  1.56019856E-04
  1 114 77  1.56019856E-04
  1 114 78  1.56019856E-04
  1 114 79  1.56019856E-04
  1 114 80  1.56019856E-04
  1 114 81  1.56019856E-04
  1 114 82  1.56019856E-04
  1 114 83  1.56019856E-04
  1 114 84  1.56019856E-04
  1 114 85  1.56019856E-04
  1 114 86  1.56019856E-04
  1 114 87  1.56019856E-04
  1 114 88  1.56019856E-04
  1 114 89  1.56019856E-04
  1 114 90  1.56019856E-04
  1 114 91  1.56019856E-04
  1 114 92  1.56019856E-04
  1 114 93  1.56019856E-04
  1 114 94  1.56019856E-04
  1 114 95  1.56019856E-04
  1 115 76  1.56019856E-04
  1 115 77  1.56019856E-04
  1 115 78  1.56019856E-04
  1 115 79  1.56019856E-04
END period  1

