# File generated by Flopy version 3.3.7 on 06/01/2023 at 12:15:38.
BEGIN options
  BUDGET  FILEOUT  leftmodel.cbc
  HEAD  FILEOUT  leftmodel.hds
  HEAD  PRINT_FORMAT  COLUMNS  10  WIDTH  15  DIGITS  6  GENERAL
END options

BEGIN period  1
  SAVE  HEAD  LAST
  SAVE  BUDGET  LAST
END period  1

