# File generated by Flopy version 3.3.7 on 06/02/2023 at 13:53:48.
BEGIN options
END options

BEGIN timing
  TDIS6  basin.tdis
END timing

BEGIN models
  gwf6  model.nam  model
END models

BEGIN exchanges
END exchanges

BEGIN solutiongroup  1
  ims6  basin.ims  model
END solutiongroup  1

