# File generated by Flopy version 3.3.7 on 06/02/2023 at 13:53:49.
BEGIN options
  READASARRAYS
END options

BEGIN period  1
  recharge
    CONSTANT  1.00000000E-06
END period  1

