# File generated by Flopy version 3.3.7 on 06/02/2023 at 13:53:48.
BEGIN options
  SAVE_FLOWS
  NEWTON  UNDER_RELAXATION
END options

BEGIN packages
  DIS6  model.dis  dis
  IC6  model.ic  ic
  NPF6  model.npf  npf
  STO6  model.sto  sto
  RCH6  model.rcha  rcha_0
  DRN6  model.drn  river
  DRN6  model_0.drn  gwd
  OC6  model.oc  oc
END packages

