# File generated by Flopy version 3.3.7 on 06/02/2023 at 13:54:36.
BEGIN options
END options

BEGIN dimensions
  NPER  1
END dimensions

BEGIN perioddata
       1.00000000  1       1.00000000
END perioddata

