# File generated by Flopy version 3.3.7 on 06/02/2023 at 13:54:36.
BEGIN options
END options

BEGIN timing
  TDIS6  basin.tdis
END timing

BEGIN models
  gwf6  model_1.nam  model_1
  gwf6  model_2.nam  model_2
END models

BEGIN exchanges
  GWF6-GWF6  sim_1_2.gwfgwf  model_1  model_2
END exchanges

BEGIN solutiongroup  1
  ims6  basin.ims  model_1  model_2
END solutiongroup  1

