# File generated by Flopy version 3.3.7 on 06/02/2023 at 13:54:39.
BEGIN options
  BUDGET  FILEOUT  model_1.cbc
  HEAD  FILEOUT  model_1.hds
END options

BEGIN period  1
  SAVE  head  all
  SAVE  budget  all
  PRINT  budget  all
END period  1

