# File generated by Flopy version 3.3.7 on 06/02/2023 at 13:54:39.
BEGIN options
  auxiliary  depth
  AUXDEPTHNAME  depth
END options

BEGIN dimensions
  MAXBOUND  48848
END dimensions

BEGIN period  1
  1 6 111      95.75077057  100000.00000000       1.00000000
  1 6 112      95.75077057  100000.00000000       1.00000000
  1 6 113      95.37101746  100000.00000000       1.00000000
  1 6 114      95.37101746  100000.00000000       1.00000000
  1 6 115      94.98061371  100000.00000000       1.00000000
  1 6 116      94.98061371  100000.00000000       1.00000000
  1 7 101      97.20894623  100000.00000000       1.00000000
  1 7 102      97.19627953  100000.00000000       1.00000000
  1 7 103      97.10438347  100000.00000000       1.00000000
  1 7 104      96.96650314  100000.00000000       1.00000000
  1 7 105      96.83460236  100000.00000000       1.00000000
  1 7 106      96.67900848  100000.00000000       1.00000000
  1 7 107      96.52463150  100000.00000000       1.00000000
  1 7 108      96.36065483  100000.00000000       1.00000000
  1 7 109      96.19096184  100000.00000000       1.00000000
  1 7 110      96.01550484  100000.00000000       1.00000000
  1 7 111      95.83428383  100000.00000000       1.00000000
  1 7 112      95.64554787  100000.00000000       1.00000000
  1 7 113      95.45567131  100000.00000000       1.00000000
  1 7 114      95.26033020  100000.00000000       1.00000000
  1 7 115      95.06512833  100000.00000000       1.00000000
  1 7 116      94.87002563  100000.00000000       1.00000000
  1 7 117      94.67502213  100000.00000000       1.00000000
  1 7 118      94.46444702  100000.00000000       1.00000000
  1 7 119      94.28158188  100000.00000000       1.00000000
  1 7 120      94.12043190  100000.00000000       1.00000000
  1 7 121      93.98099709  100000.00000000       1.00000000
  1 7 122      93.69629860  100000.00000000       1.00000000
  1 8 93      98.56137085  100000.00000000       1.00000000
  1 8 94      98.56137085  100000.00000000       1.00000000
  1 8 95      98.30005646  100000.00000000       1.00000000
  1 8 96      98.30005646  100000.00000000       1.00000000
  1 8 97      98.01192474  100000.00000000       1.00000000
  1 8 98      98.01192474  100000.00000000       1.00000000
  1 8 99      97.69552612  100000.00000000       1.00000000
  1 8 100      97.69552612  100000.00000000       1.00000000
  1 8 101      97.34207153  100000.00000000       1.00000000
  1 8 102      97.26284218  100000.00000000       1.00000000
  1 8 103      97.11898232  100000.00000000       1.00000000
  1 8 104      96.98110199  100000.00000000       1.00000000
  1 8 105      96.83155060  100000.00000000       1.00000000
  1 8 106      96.67595673  100000.00000000       1.00000000
  1 8 107      96.51432037  100000.00000000       1.00000000
  1 8 108      96.35034370  100000.00000000       1.00000000
  1 8 109      96.17676735  100000.00000000       1.00000000
  1 8 110      96.00131035  100000.00000000       1.00000000
  1 8 111      95.81712532  100000.00000000       1.00000000
  1 8 112      95.62838936  100000.00000000       1.00000000
  1 8 113      95.43510246  100000.00000000       1.00000000
  1 8 114      95.23976135  100000.00000000       1.00000000
  1 8 115      95.03895569  100000.00000000       1.00000000
  1 8 116      94.84385300  100000.00000000       1.00000000
  1 8 117      94.63686752  100000.00000000       1.00000000
  1 8 118      94.42629242  100000.00000000       1.00000000
  1 8 119      94.21212769  100000.00000000       1.00000000
  1 8 120      94.05097771  100000.00000000       1.00000000
  1 8 121      93.81564903  100000.00000000       1.00000000
  1 8 122      93.53095055  100000.00000000       1.00000000
  1 8 123      93.19688225  100000.00000000       1.00000000
  1 8 124      92.94717407  100000.00000000       1.00000000
  1 8 125      92.32556915  100000.00000000       1.00000000
  1 8 126      92.32556915  100000.00000000       1.00000000
  1 8 127      91.72425842  100000.00000000       1.00000000
  1 8 128      91.72425842  100000.00000000       1.00000000
  1 9 87      99.11818695  100000.00000000       1.00000000
  1 9 88      99.08812714  100000.00000000       1.00000000
  1 9 89      99.02227020  100000.00000000       1.00000000
  1 9 90      98.93510628  100000.00000000       1.00000000
  1 9 91      98.83840752  100000.00000000       1.00000000
  1 9 92      98.73213196  100000.00000000       1.00000000
  1 9 93      98.61627960  100000.00000000       1.00000000
  1 9 94      98.49008369  100000.00000000       1.00000000
  1 9 95      98.35942650  100000.00000000       1.00000000
  1 9 96      98.22238922  100000.00000000       1.00000000
  1 9 97      98.07832336  100000.00000000       1.00000000
  1 9 98      97.92934990  100000.00000000       1.00000000
  1 9 99      97.77115059  100000.00000000       1.00000000
  1 9 100      97.60368729  100000.00000000       1.00000000
  1 9 101      97.42695999  100000.00000000       1.00000000
  1 9 102      97.26753044  100000.00000000       1.00000000
  1 9 103      97.12367058  100000.00000000       1.00000000
  1 9 104      96.97696495  100000.00000000       1.00000000
  1 9 105      96.82741356  100000.00000000       1.00000000
  1 9 106      96.66616058  100000.00000000       1.00000000
  1 9 107      96.50452423  100000.00000000       1.00000000
  1 9 108      96.33052444  100000.00000000       1.00000000
  1 9 109      96.15694809  100000.00000000       1.00000000
  1 9 110      95.97578430  100000.00000000       1.00000000
  1 9 111      95.79159927  100000.00000000       1.00000000
  1 9 112      95.60032654  100000.00000000       1.00000000
  1 9 113      95.40703964  100000.00000000       1.00000000
  1 9 114      95.20999336  100000.00000000       1.00000000
  1 9 115      95.00918770  100000.00000000       1.00000000
  1 9 116      94.80177879  100000.00000000       1.00000000
  1 9 117      94.59479332  100000.00000000       1.00000000
  1 9 118      94.37867737  100000.00000000       1.00000000
  1 9 119      94.16451263  100000.00000000       1.00000000
  1 9 120      93.92169380  100000.00000000       1.00000000
  1 9 121      93.68636513  100000.00000000       1.00000000
  1 9 122      93.42314529  100000.00000000       1.00000000
  1 9 123      93.08907700  100000.00000000       1.00000000
  1 9 124      92.76664162  100000.00000000       1.00000000
  1 9 125      92.45583916  100000.00000000       1.00000000
  1 9 126      92.15793228  100000.00000000       1.00000000
  1 9 127      91.85727692  100000.00000000       1.00000000
  1 9 128      91.55834389  100000.00000000       1.00000000
  1 9 129      91.26535988  100000.00000000       1.00000000
  1 9 130      90.97830582  100000.00000000       1.00000000
  1 9 131      90.69718170  100000.00000000       1.00000000
  1 9 132      90.42198181  100000.00000000       1.00000000
  1 9 133      90.16690063  100000.00000000       1.00000000
  1 9 134      89.86345100  100000.00000000       1.00000000
  1 9 135      89.67435646  100000.00000000       1.00000000
  1 10 80      99.99099731  100000.00000000       1.00000000
  1 10 81      99.83164215  100000.00000000       1.00000000
  1 10 82      99.83164215  100000.00000000       1.00000000
  1 10 83      99.64676666  100000.00000000       1.00000000
  1 10 84      99.64676666  100000.00000000       1.00000000
  1 10 85      99.43749237  100000.00000000       1.00000000
  1 10 86      99.43749237  100000.00000000       1.00000000
  1 10 87      99.23880768  100000.00000000       1.00000000
  1 10 88      99.12892151  100000.00000000       1.00000000
  1 10 89      99.02800751  100000.00000000       1.00000000
  1 10 90      98.94084358  100000.00000000       1.00000000
  1 10 91      98.83237267  100000.00000000       1.00000000
  1 10 92      98.72609711  100000.00000000       1.00000000
  1 10 93      98.60583115  100000.00000000       1.00000000
  1 10 94      98.47963524  100000.00000000       1.00000000
  1 10 95      98.34750938  100000.00000000       1.00000000
  1 10 96      98.21047211  100000.00000000       1.00000000
  1 10 97      98.06705475  100000.00000000       1.00000000
  1 10 98      97.91808128  100000.00000000       1.00000000
  1 10 99      97.76420021  100000.00000000       1.00000000
  1 10 100      97.59673691  100000.00000000       1.00000000
  1 10 101      97.43506241  100000.00000000       1.00000000
  1 10 102      97.27563286  100000.00000000       1.00000000
  1 10 103      97.11844826  100000.00000000       1.00000000
  1 10 104      96.97174263  100000.00000000       1.00000000
  1 10 105      96.81087303  100000.00000000       1.00000000
  1 10 106      96.64962006  100000.00000000       1.00000000
  1 10 107      96.48049164  100000.00000000       1.00000000
  1 10 108      96.30649185  100000.00000000       1.00000000
  1 10 109      96.12762070  100000.00000000       1.00000000
  1 10 110      95.94645691  100000.00000000       1.00000000
  1 10 111      95.75770569  100000.00000000       1.00000000
  1 10 112      95.56643295  100000.00000000       1.00000000
  1 10 113      95.36807251  100000.00000000       1.00000000
  1 10 114      95.17102623  100000.00000000       1.00000000
  1 10 115      94.96319389  100000.00000000       1.00000000
  1 10 116      94.75578499  100000.00000000       1.00000000
  1 10 117      94.53771782  100000.00000000       1.00000000
  1 10 118      94.32160187  100000.00000000       1.00000000
  1 10 119      94.09001160  100000.00000000       1.00000000
  1 10 120      93.84719276  100000.00000000       1.00000000
  1 10 121      93.59314537  100000.00000000       1.00000000
  1 10 122      93.32992554  100000.00000000       1.00000000
  1 10 123      93.03881454  100000.00000000       1.00000000
  1 10 124      92.71637917  100000.00000000       1.00000000
  1 10 125      92.41875267  100000.00000000       1.00000000
  1 10 126      92.12084579  100000.00000000       1.00000000
  1 10 127      91.82265854  100000.00000000       1.00000000
  1 10 128      91.52372551  100000.00000000       1.00000000
  1 10 129      91.22651482  100000.00000000       1.00000000
  1 10 130      90.93946075  100000.00000000       1.00000000
  1 10 131      90.64414215  100000.00000000       1.00000000
  1 10 132      90.36894226  100000.00000000       1.00000000
  1 10 133      90.07399368  100000.00000000       1.00000000
  1 10 134      89.77054405  100000.00000000       1.00000000
  1 10 135      89.45859337  100000.00000000       1.00000000
  1 10 136      89.25616455  100000.00000000       1.00000000
  1 10 137      88.40360260  100000.00000000       1.00000000
  1 10 138      88.40360260  100000.00000000       1.00000000
  1 10 139      87.65284729  100000.00000000       1.00000000
  1 11 76     100.19084167  100000.00000000       1.00000000
  1 11 77     100.14893341  100000.00000000       1.00000000
  1 11 78     100.08260345  100000.00000000       1.00000000
  1 11 79     100.01834106  100000.00000000       1.00000000
  1 11 80      99.94503593  100000.00000000       1.00000000
  1 11 81      99.86535835  100000.00000000       1.00000000
  1 11 82      99.77930069  100000.00000000       1.00000000
  1 11 83      99.68686295  100000.00000000       1.00000000
  1 11 84      99.58805084  100000.00000000       1.00000000
  1 11 85      99.48341370  100000.00000000       1.00000000
  1 11 86      99.37689590  100000.00000000       1.00000000
  1 11 87      99.25803757  100000.00000000       1.00000000
  1 11 88      99.14815140  100000.00000000       1.00000000
  1 11 89      99.04723740  100000.00000000       1.00000000
  1 11 90      98.93398857  100000.00000000       1.00000000
  1 11 91      98.82551765  100000.00000000       1.00000000
  1 11 92      98.70894623  100000.00000000       1.00000000
  1 11 93      98.58868027  100000.00000000       1.00000000
  1 11 94      98.46248436  100000.00000000       1.00000000
  1 11 95      98.33035851  100000.00000000       1.00000000
  1 11 96      98.19153786  100000.00000000       1.00000000
  1 11 97      98.04812050  100000.00000000       1.00000000
  1 11 98      97.89934349  100000.00000000       1.00000000
  1 11 99      97.74546242  100000.00000000       1.00000000
  1 11 100      97.58982468  100000.00000000       1.00000000
  1 11 101      97.42815018  100000.00000000       1.00000000
  1 11 102      97.26872063  100000.00000000       1.00000000
  1 11 103      97.11153603  100000.00000000       1.00000000
  1 11 104      96.94652557  100000.00000000       1.00000000
  1 11 105      96.78565598  100000.00000000       1.00000000
  1 11 106      96.61761284  100000.00000000       1.00000000
  1 11 107      96.44848442  100000.00000000       1.00000000
  1 11 108      96.27186203  100000.00000000       1.00000000
  1 11 109      96.09299088  100000.00000000       1.00000000
  1 11 110      95.90671539  100000.00000000       1.00000000
  1 11 111      95.71796417  100000.00000000       1.00000000
  1 11 112      95.52440834  100000.00000000       1.00000000
  1 11 113      95.32604790  100000.00000000       1.00000000
  1 11 114      95.11711884  100000.00000000       1.00000000
  1 11 115      94.90928650  100000.00000000       1.00000000
  1 11 116      94.69238281  100000.00000000       1.00000000
  1 11 117      94.47431564  100000.00000000       1.00000000
  1 11 118      94.24948692  100000.00000000       1.00000000
  1 11 119      94.01789665  100000.00000000       1.00000000
  1 11 120      93.76859665  100000.00000000       1.00000000
  1 11 121      93.51454926  100000.00000000       1.00000000
  1 11 122      93.24197006  100000.00000000       1.00000000
  1 11 123      92.95085907  100000.00000000       1.00000000
  1 11 124      92.66613388  100000.00000000       1.00000000
  1 11 125      92.36850739  100000.00000000       1.00000000
  1 11 126      92.07060051  100000.00000000       1.00000000
  1 11 127      91.77241325  100000.00000000       1.00000000
  1 11 128      91.47514153  100000.00000000       1.00000000
  1 11 129      91.17793083  100000.00000000       1.00000000
  1 11 130      90.87267685  100000.00000000       1.00000000
  1 11 131      90.57735825  100000.00000000       1.00000000
  1 11 132      90.27089882  100000.00000000       1.00000000
  1 11 133      89.97595024  100000.00000000       1.00000000
  1 11 134      89.67250061  100000.00000000       1.00000000
  1 11 135      89.36054993  100000.00000000       1.00000000
  1 11 136      89.00337601  100000.00000000       1.00000000
  1 11 137      88.57709503  100000.00000000       1.00000000
  1 11 138      88.17626572  100000.00000000       1.00000000
  1 11 139      87.80088806  100000.00000000       1.00000000
  1 11 140      87.43082047  100000.00000000       1.00000000
  1 11 141      87.10513687  100000.00000000       1.00000000
  1 11 142      86.82473755  100000.00000000       1.00000000
  1 11 143      86.58962250  100000.00000000       1.00000000
  1 12 73     100.36522675  100000.00000000       1.00000000
  1 12 74     100.36522675  100000.00000000       1.00000000
  1 12 75     100.23716736  100000.00000000       1.00000000
  1 12 76     100.20775604  100000.00000000       1.00000000
  1 12 77     100.14627075  100000.00000000       1.00000000
  1 12 78     100.07994080  100000.00000000       1.00000000
  1 12 79     100.00876617  100000.00000000       1.00000000
  1 12 80      99.93546104  100000.00000000       1.00000000
  1 12 81      99.85311317  100000.00000000       1.00000000
  1 12 82      99.76705551  100000.00000000       1.00000000
  1 12 83      99.67406845  100000.00000000       1.00000000
  1 12 84      99.57525635  100000.00000000       1.00000000
  1 12 85      99.47259521  100000.00000000       1.00000000
  1 12 86      99.36607742  100000.00000000       1.00000000
  1 12 87      99.25570297  100000.00000000       1.00000000
  1 12 88      99.14581680  100000.00000000       1.00000000
  1 12 89      99.03536606  100000.00000000       1.00000000
  1 12 90      98.92211723  100000.00000000       1.00000000
  1 12 91      98.80607033  100000.00000000       1.00000000
  1 12 92      98.68949890  100000.00000000       1.00000000
  1 12 93      98.56482697  100000.00000000       1.00000000
  1 12 94      98.43863106  100000.00000000       1.00000000
  1 12 95      98.30440712  100000.00000000       1.00000000
  1 12 96      98.16558647  100000.00000000       1.00000000
  1 12 97      98.02191353  100000.00000000       1.00000000
  1 12 98      97.87313652  100000.00000000       1.00000000
  1 12 99      97.72084236  100000.00000000       1.00000000
  1 12 100      97.56520462  100000.00000000       1.00000000
  1 12 101      97.40622330  100000.00000000       1.00000000
  1 12 102      97.24679375  100000.00000000       1.00000000
  1 12 103      97.08443260  100000.00000000       1.00000000
  1 12 104      96.91942215  100000.00000000       1.00000000
  1 12 105      96.75176239  100000.00000000       1.00000000
  1 12 106      96.58371925  100000.00000000       1.00000000
  1 12 107      96.40850258  100000.00000000       1.00000000
  1 12 108      96.23188019  100000.00000000       1.00000000
  1 12 109      96.04776382  100000.00000000       1.00000000
  1 12 110      95.86148834  100000.00000000       1.00000000
  1 12 111      95.66780853  100000.00000000       1.00000000
  1 12 112      95.47425270  100000.00000000       1.00000000
  1 12 113      95.27059746  100000.00000000       1.00000000
  1 12 114      95.06166840  100000.00000000       1.00000000
  1 12 115      94.84746552  100000.00000000       1.00000000
  1 12 116      94.63056183  100000.00000000       1.00000000
  1 12 117      94.40458679  100000.00000000       1.00000000
  1 12 118      94.17975807  100000.00000000       1.00000000
  1 12 119      93.93951988  100000.00000000       1.00000000
  1 12 120      93.69021988  100000.00000000       1.00000000
  1 12 121      93.43185806  100000.00000000       1.00000000
  1 12 122      93.15927887  100000.00000000       1.00000000
  1 12 123      92.88034821  100000.00000000       1.00000000
  1 12 124      92.59562302  100000.00000000       1.00000000
  1 12 125      92.30510330  100000.00000000       1.00000000
  1 12 126      92.00719643  100000.00000000       1.00000000
  1 12 127      91.70986366  100000.00000000       1.00000000
  1 12 128      91.41259193  100000.00000000       1.00000000
  1 12 129      91.11014748  100000.00000000       1.00000000
  1 12 130      90.80489349  100000.00000000       1.00000000
  1 12 131      90.49682999  100000.00000000       1.00000000
  1 12 132      90.19037056  100000.00000000       1.00000000
  1 12 133      89.87277031  100000.00000000       1.00000000
  1 12 134      89.56932068  100000.00000000       1.00000000
  1 12 135      89.23125458  100000.00000000       1.00000000
  1 12 136      88.87408066  100000.00000000       1.00000000
  1 12 137      88.49779892  100000.00000000       1.00000000
  1 12 138      88.09696960  100000.00000000       1.00000000
  1 12 139      87.72312927  100000.00000000       1.00000000
  1 12 140      87.35306168  100000.00000000       1.00000000
  1 12 141      86.98676682  100000.00000000       1.00000000
  1 12 142      86.70636749  100000.00000000       1.00000000
  1 12 143      86.32718277  100000.00000000       1.00000000
  1 12 144      86.00637054  100000.00000000       1.00000000
  1 12 145      84.98702240  100000.00000000       1.00000000
  1 12 146      84.98702240  100000.00000000       1.00000000
  1 12 147      84.10424805  100000.00000000       1.00000000
  1 13 70     100.51672173  100000.00000000       1.00000000
  1 13 71     100.48487282  100000.00000000       1.00000000
  1 13 72     100.43709755  100000.00000000       1.00000000
  1 13 73     100.38694954  100000.00000000       1.00000000
  1 13 74     100.32789421  100000.00000000       1.00000000
  1 13 75     100.26386452  100000.00000000       1.00000000
  1 13 76     100.20110703  100000.00000000       1.00000000
  1 13 77     100.13962173  100000.00000000       1.00000000
  1 13 78     100.06962967  100000.00000000       1.00000000
  1 13 79      99.99845505  100000.00000000       1.00000000
  1 13 80      99.91897202  100000.00000000       1.00000000
  1 13 81      99.83662415  100000.00000000       1.00000000
  1 13 82      99.74660110  100000.00000000       1.00000000
  1 13 83      99.65361404  100000.00000000       1.00000000
  1 13 84      99.55578995  100000.00000000       1.00000000
  1 13 85      99.45312881  100000.00000000       1.00000000
  1 13 86      99.34658813  100000.00000000       1.00000000
  1 13 87      99.23621368  100000.00000000       1.00000000
  1 13 88      99.12414932  100000.00000000       1.00000000
  1 13 89      99.01369858  100000.00000000       1.00000000
  1 13 90      98.89815140  100000.00000000       1.00000000
  1 13 91      98.78210449  100000.00000000       1.00000000
  1 13 92      98.65997696  100000.00000000       1.00000000
  1 13 93      98.53530502  100000.00000000       1.00000000
  1 13 94      98.40585709  100000.00000000       1.00000000
  1 13 95      98.27163315  100000.00000000       1.00000000
  1 13 96      98.13098335  100000.00000000       1.00000000
  1 13 97      97.98731041  100000.00000000       1.00000000
  1 13 98      97.83932686  100000.00000000       1.00000000
  1 13 99      97.68703270  100000.00000000       1.00000000
  1 13 100      97.53118896  100000.00000000       1.00000000
  1 13 101      97.37220764  100000.00000000       1.00000000
  1 13 102      97.20954704  100000.00000000       1.00000000
  1 13 103      97.04718590  100000.00000000       1.00000000
  1 13 104      96.87986755  100000.00000000       1.00000000
  1 13 105      96.71220779  100000.00000000       1.00000000
  1 13 106      96.54076958  100000.00000000       1.00000000
  1 13 107      96.36555290  100000.00000000       1.00000000
  1 13 108      96.18348122  100000.00000000       1.00000000
  1 13 109      95.99936485  100000.00000000       1.00000000
  1 13 110      95.80813599  100000.00000000       1.00000000
  1 13 111      95.61445618  100000.00000000       1.00000000
  1 13 112      95.41106606  100000.00000000       1.00000000
  1 13 113      95.20741081  100000.00000000       1.00000000
  1 13 114      94.99848175  100000.00000000       1.00000000
  1 13 115      94.78427887  100000.00000000       1.00000000
  1 13 116      94.56156921  100000.00000000       1.00000000
  1 13 117      94.33559418  100000.00000000       1.00000000
  1 13 118      94.09724808  100000.00000000       1.00000000
  1 13 119      93.85700989  100000.00000000       1.00000000
  1 13 120      93.60770988  100000.00000000       1.00000000
  1 13 121      93.34934807  100000.00000000       1.00000000
  1 13 122      93.08119202  100000.00000000       1.00000000
  1 13 123      92.80226135  100000.00000000       1.00000000
  1 13 124      92.51863098  100000.00000000       1.00000000
  1 13 125      92.22811127  100000.00000000       1.00000000
  1 13 126      91.93370628  100000.00000000       1.00000000
  1 13 127      91.63637352  100000.00000000       1.00000000
  1 13 128      91.33648491  100000.00000000       1.00000000
  1 13 129      91.03404045  100000.00000000       1.00000000
  1 13 130      90.72187042  100000.00000000       1.00000000
  1 13 131      90.41380692  100000.00000000       1.00000000
  1 13 132      90.10097504  100000.00000000       1.00000000
  1 13 133      89.78337479  100000.00000000       1.00000000
  1 13 134      89.44525146  100000.00000000       1.00000000
  1 13 135      89.10718536  100000.00000000       1.00000000
  1 13 136      88.75453377  100000.00000000       1.00000000
  1 13 137      88.37825203  100000.00000000       1.00000000
  1 13 138      88.00136185  100000.00000000       1.00000000
  1 13 139      87.62752151  100000.00000000       1.00000000
  1 13 140      87.25745392  100000.00000000       1.00000000
  1 13 141      86.89115906  100000.00000000       1.00000000
  1 13 142      86.50826836  100000.00000000       1.00000000
  1 13 143      86.12908363  100000.00000000       1.00000000
  1 13 144      85.70251083  100000.00000000       1.00000000
  1 13 145      85.19283676  100000.00000000       1.00000000
  1 13 146      84.71730614  100000.00000000       1.00000000
  1 13 147      84.27591896  100000.00000000       1.00000000
  1 13 148      83.86895752  100000.00000000       1.00000000
  1 13 149      83.49226761  100000.00000000       1.00000000
  1 13 150      83.06934166  100000.00000000       1.00000000
  1 13 151      82.80184364  100000.00000000       1.00000000
  1 14 67     100.63008118  100000.00000000       1.00000000
  1 14 68     100.63008118  100000.00000000       1.00000000
  1 14 69     100.54292297  100000.00000000       1.00000000
  1 14 70     100.52357292  100000.00000000       1.00000000
  1 14 71     100.47817039  100000.00000000       1.00000000
  1 14 72     100.43039513  100000.00000000       1.00000000
  1 14 73     100.37582970  100000.00000000       1.00000000
  1 14 74     100.31677437  100000.00000000       1.00000000
  1 14 75     100.25322914  100000.00000000       1.00000000
  1 14 76     100.19047165  100000.00000000       1.00000000
  1 14 77     100.12166214  100000.00000000       1.00000000
  1 14 78     100.05167007  100000.00000000       1.00000000
  1 14 79      99.97505188  100000.00000000       1.00000000
  1 14 80      99.89556885  100000.00000000       1.00000000
  1 14 81      99.81000137  100000.00000000       1.00000000
  1 14 82      99.71997833  100000.00000000       1.00000000
  1 14 83      99.62549973  100000.00000000       1.00000000
  1 14 84      99.52767563  100000.00000000       1.00000000
  1 14 85      99.42496872  100000.00000000       1.00000000
  1 14 86      99.31842804  100000.00000000       1.00000000
  1 14 87      99.20878983  100000.00000000       1.00000000
  1 14 88      99.09672546  100000.00000000       1.00000000
  1 14 89      98.98223495  100000.00000000       1.00000000
  1 14 90      98.86668777  100000.00000000       1.00000000
  1 14 91      98.74604416  100000.00000000       1.00000000
  1 14 92      98.62391663  100000.00000000       1.00000000
  1 14 93      98.49570847  100000.00000000       1.00000000
  1 14 94      98.36626053  100000.00000000       1.00000000
  1 14 95      98.22978210  100000.00000000       1.00000000
  1 14 96      98.08913231  100000.00000000       1.00000000
  1 14 97      97.94431114  100000.00000000       1.00000000
  1 14 98      97.79632759  100000.00000000       1.00000000
  1 14 99      97.64362144  100000.00000000       1.00000000
  1 14 100      97.48777771  100000.00000000       1.00000000
  1 14 101      97.32811737  100000.00000000       1.00000000
  1 14 102      97.16545677  100000.00000000       1.00000000
  1 14 103      96.99979591  100000.00000000       1.00000000
  1 14 104      96.83247757  100000.00000000       1.00000000
  1 14 105      96.66020203  100000.00000000       1.00000000
  1 14 106      96.48876381  100000.00000000       1.00000000
  1 14 107      96.30873680  100000.00000000       1.00000000
  1 14 108      96.12666512  100000.00000000       1.00000000
  1 14 109      95.93788719  100000.00000000       1.00000000
  1 14 110      95.74665833  100000.00000000       1.00000000
  1 14 111      95.54835892  100000.00000000       1.00000000
  1 14 112      95.34496880  100000.00000000       1.00000000
  1 14 113      95.13648796  100000.00000000       1.00000000
  1 14 114      94.92755890  100000.00000000       1.00000000
  1 14 115      94.70811462  100000.00000000       1.00000000
  1 14 116      94.48540497  100000.00000000       1.00000000
  1 14 117      94.25387573  100000.00000000       1.00000000
  1 14 118      94.01552963  100000.00000000       1.00000000
  1 14 119      93.77036667  100000.00000000       1.00000000
  1 14 120      93.52106667  100000.00000000       1.00000000
  1 14 121      93.26066017  100000.00000000       1.00000000
  1 14 122      92.99250412  100000.00000000       1.00000000
  1 14 123      92.71659851  100000.00000000       1.00000000
  1 14 124      92.43296814  100000.00000000       1.00000000
  1 14 125      92.14463806  100000.00000000       1.00000000
  1 14 126      91.85023308  100000.00000000       1.00000000
  1 14 127      91.55194283  100000.00000000       1.00000000
  1 14 128      91.25205421  100000.00000000       1.00000000
  1 14 129      90.94475365  100000.00000000       1.00000000
  1 14 130      90.63258362  100000.00000000       1.00000000
  1 14 131      90.31554413  100000.00000000       1.00000000
  1 14 132      90.00271225  100000.00000000       1.00000000
  1 14 133      89.67319870  100000.00000000       1.00000000
  1 14 134      89.33507538  100000.00000000       1.00000000
  1 14 135      88.98834229  100000.00000000       1.00000000
  1 14 136      88.63569069  100000.00000000       1.00000000
  1 14 137      88.26845360  100000.00000000       1.00000000
  1 14 138      87.89156342  100000.00000000       1.00000000
  1 14 139      87.51406479  100000.00000000       1.00000000
  1 14 140      87.14399719  100000.00000000       1.00000000
  1 14 141      86.75740051  100000.00000000       1.00000000
  1 14 142      86.37450981  100000.00000000       1.00000000
  1 14 143      85.96804619  100000.00000000       1.00000000
  1 14 144      85.54147339  100000.00000000       1.00000000
  1 14 145      85.09479141  100000.00000000       1.00000000
  1 14 146      84.61926079  100000.00000000       1.00000000
  1 14 147      84.18202782  100000.00000000       1.00000000
  1 14 148      83.77506638  100000.00000000       1.00000000
  1 14 149      83.35433960  100000.00000000       1.00000000
  1 14 150      82.93141365  100000.00000000       1.00000000
  1 14 151      82.50628853  100000.00000000       1.00000000
  1 14 152      82.09523582  100000.00000000       1.00000000