# File generated by Flopy version 3.3.7 on 06/02/2023 at 13:54:40.
BEGIN griddata
  strt
    INTERNAL  FACTOR  1.0
         106.79911804     106.79911804     106.79911804     106.78823280     106.76752281     106.73663902     106.69558144     106.64430809     106.58325005     106.51167297     106.43089294     106.34035301     106.24005318     106.12943840     106.00980949     105.88037682     105.74160194     105.59336662     105.43567085     105.26850128     105.09213257     104.90654945     104.71180916     104.50814819     104.29538345     104.07438278     103.84399796     103.60504723     103.35753059     103.10285568     102.83875656     102.56669044     102.28665733     102.00071526     101.70548820     101.40308762     101.09351349     100.77941132     100.45643234     100.12727165      99.79192924      99.45316887      99.10592461      98.75437546      98.39584351      98.03225136      97.66359901      97.29185104      96.91432190      96.53550529      96.15036583      95.76315117      95.37168312      94.97767448      94.58112526      94.18355942      93.78313446      93.38205338      92.97888184      92.57555771      92.17066193      91.76535988      91.35965157      90.95388031      90.54813385      90.14238739      89.73725891      89.33213234      88.92814064      88.52310562      88.12064743      87.71792030      87.31727791      86.91763687      86.51899719      86.12010574      85.72356796      85.32671547      84.93231392      84.53611946      84.14382744      83.75116348      83.36091232      82.97162247      82.58329391      82.19328690      81.80672455      81.41983414      81.03485107      80.65053558      80.26688766      79.88279915      79.50021172      79.11660957      78.73477745      78.35313988      77.97169685      77.58979225      77.20834541      76.82688141      76.44499588      76.06320000      75.68041039      75.29692650      74.91274834      74.52990150      74.14382744      73.75837708      73.36988449      72.98227310      72.59078598      72.19748116      71.80235863      71.40806580      71.00858688      70.61029816      70.20570755      69.80289268      69.39260674      68.99180412      68.57590294      68.15799141      67.73806953      67.32529449      66.90504456      66.49880600      66.08100128      65.67104149      65.25901604      64.91411400      64.63633537      64.44941711      64.68289948      64.84979057      64.95009041      64.98464394      65.02498055      65.04480934      65.04413033      65.02508354      64.98945427      64.94042969      64.87272263      64.79006958      64.69247055      64.58266640      64.45727730      64.32280922      64.17167091      64.00860214      63.83360291      63.65239525      63.45523453      63.24776077      63.02997398      62.80548763      62.56843090      62.32561493      62.07046509      61.81419277      61.54197598      61.26170921      60.97339249      60.68538475      60.38197517      60.07547283      59.75809002      59.43819904      59.10811901      58.77241039      58.43107319      58.08871269      57.73769951      57.39043522      57.03141117      56.67324257      56.30791473      55.94440460      55.57450104      55.20318890      54.83046818      54.46588039      54.09208202      53.71854496      53.34526920      52.98266792      52.61121178      52.24113274      51.87243080      51.51064491      51.14528275      50.79242516      50.43071747      50.07611370      49.71816349      49.36712742      49.01289845      48.66046429      48.30982494      47.96573925      47.61852932      47.27753448      46.93359184      46.59548664      46.25466251      45.92272568      45.58490181      45.25147247      44.91652870      44.58297157      44.25080109      43.92235756      43.59288979      43.26789761      42.94119740      42.61598778      42.29226875      41.97106457      41.65046024      41.33285522      41.01507568      40.69836521      40.38272381      40.06849289      39.75423241      39.44145298      39.12812901      38.81546688      38.50319386      38.19168949      37.88095379      37.57108116      37.26201248      36.95485210      36.64674854      36.34027481      36.03189278      35.72534466      35.41542721      35.10778332      34.79552555      34.48195553      34.16707325      33.85975742      33.54185772      33.22756195      32.90666008      32.58847427      32.26240730      31.93435049      31.60430384      31.27014685      30.92404699      30.58461952      30.22147465      29.90101337      29.62323570      29.30555582      29.69816828      30.03186035      30.31723022      30.55706787      30.75137329      30.90541029      31.08534479      31.24936342      31.39746618      31.53756094      31.64391375      31.73896980      31.80482292      31.85305738      31.87964392      31.88719511      31.87571096      31.84479332      31.79612923      31.72594929      31.64145088      31.54005098      31.42174959      31.28221464      31.13265657      30.95230150      30.77444220      30.57320261      30.37063169      30.15804148      29.93543196      29.69332027      29.45658493      29.20336723      28.95861816      28.69372797      28.44498968      28.18950748      27.93872166      27.68301249      27.43086672      27.17487717      26.92151165      26.66500425      26.41041327      26.15523148      25.89945889      25.63958025      25.38280725      25.12571335      24.86829853      24.60960913      24.35212469      24.09358549      23.83684969      23.58104467      23.32617044      23.07288074      22.82131577      22.57446480      22.32798290      22.08503437      21.84561920      21.61384010      21.38329983      21.17222595      20.95142078      20.74709702      20.53490829      20.32537413      20.11849451      19.92611742      19.72150660      19.54424906      19.34010363      19.13568115      18.93098164      18.75388622      18.54788494      18.35542011      18.14788246      17.93978548      17.73112917      17.55169249      17.34281683      17.13445616      16.92661047      16.73530746      16.53025031      16.34321809      16.14339471      15.97971106      15.78863955      15.60513330      15.42919230      15.29702592      15.14646363      15.01350141      14.89813924      14.82291508      14.76136303      14.93202114      14.93202114
         106.79739380     106.79739380     106.79739380     106.78737068     106.76646233     106.73557854     106.69408989     106.64281654     106.58114815     106.50957108     106.42808533     106.33754539     106.23655510     106.12594032     106.00570107     105.87626839     105.73703194     105.58879662     105.43082619     105.26365662     105.08723068     104.90164757     104.70709038     104.50342941     104.29110336     104.07010269     103.84042740     103.60147667     103.35495186     103.10027695     102.83745193     102.56538582     102.28690529     102.00096321     101.70755959     101.40515900     101.09764862     100.78354645     100.46285248     100.13369179      99.80080605      99.46204567      99.11741066      98.76586151      98.41000748      98.04641533      97.68044853      97.30870056      96.93377304      96.55495644      96.17225075      95.78503609      95.39574623      95.00173759      94.60703087      94.20946503      93.81047440      93.40939331      93.00718689      92.60386276      92.19942093      91.79411888      91.38832283      90.98255157      90.57618713      90.17044067      89.76417923      89.35905266      88.95345497      88.54841995      88.14394760      87.74122047      87.33822441      86.93858337      86.53733826      86.13844681      85.73914337      85.34229088      84.94504356      84.54884911      84.15370750      83.76104355      83.36800766      82.97871780      82.58773422      82.19772720      81.80869675      81.42180634      81.03458786      80.65027237      80.26468277      79.88059425      79.49641609      79.11281395      78.72978783      78.34815025      77.96598244      77.58407784      77.20243645      76.82097244      76.43949127      76.05769539      75.67598915      75.29250526      74.91017723      74.52733040      74.14396477      73.75851440      73.37368774      72.98607635      72.59934616      72.20604134      71.81693459      71.42264175      71.03065491      70.63236618      70.23702240      69.83420753      69.43518639      69.03438377      68.63179970      68.21388817      67.80858803      67.39581299      66.98933792      66.58309937      66.17709732      65.76713753      65.36502266      65.02012062      64.63633537      64.44941711      64.45936584      64.62625694      64.66936302      64.70391655      64.72991753      64.74974632      64.74728203      64.72823524      64.69471931      64.64569473      64.58116150      64.49850845      64.40428925      64.29448509      64.17267990      64.03821182      63.89108086      63.72801208      63.55757141      63.37636375      63.18438911      62.97691536      62.76499939      62.54051304      62.31003094      62.06721497      61.81925964      61.56298733      61.29839802      61.01813126      60.73765564      60.44964790      60.15410805      59.84760571      59.53801060      59.21811962      58.89572048      58.56001186      58.22630405      57.88394356      57.54060936      57.19334507      56.84215069      56.48398209      56.12666893      55.76315880      55.40146637      55.03015423      54.66589832      54.30131054      53.93639088      53.56285381      53.19904613      52.83644485      52.47504997      52.10497093      51.74676132      51.38497543      51.03030586      50.67744827      50.32640266      49.97179890      49.62429905      49.27326298      48.92914104      48.57670689      48.23574543      47.89165974      47.55361271      47.21261787      46.87723160      46.53912640      46.20613194      45.87419510      45.54331589      45.20988655      44.88085175      44.54729462      44.21987534      43.89143181      43.56555748      43.24056530      42.91645527      42.59124565      42.26944160      41.94823742      41.62926769      41.31166267      40.99542236      40.67871189      40.36451054      40.05027962      39.73723984      39.42446041      39.11194134      38.79927921      38.48727894      38.17577457      37.86509800      37.55522537      37.24696159      36.93980122      36.63374424      36.32727051      36.02242661      35.71587849      35.41116428      35.10352039      34.79815006      34.48458004      34.17807865      33.87076283      33.56263256      33.24833679      32.93764496      32.61945915      32.30398941      31.97593260      31.65371847      31.31956148      30.98631716      30.64688969      30.30127907      29.98081779      29.62323570      29.30555582      29.02777815      29.36147022      29.63624191      29.87607956      29.97646427      30.13050127      30.33819056      30.50220919      30.67604589      30.81614065      30.93314314      31.02819920      31.10130882      31.14954329      31.18015909      31.18771029      31.17737818      31.14646053      31.09495735      31.02477741      30.93308163      30.83168173      30.70216990      30.56263494      30.39822531      30.21787024      30.02156973      29.82033014      29.59571028      29.38312006      29.13563204      28.89352036      28.63183403      28.37861633      28.11317158      27.84828138      27.58394575      27.32846355      27.06623745      26.81052828      26.54989576      26.29390621      26.03407288      25.77756548      25.51791620      25.26273441      25.00294304      24.74306440      24.48309851      24.22600460      23.96611023      23.70742083      23.44813871      23.18959951      22.93180323      22.67599821      22.42098379      22.16769409      21.91729069      21.67043972      21.42714119      21.18419266      20.95117474      20.71939564      20.50016403      20.28909016      20.08617401      19.88185024      19.69400787      19.48447371      19.30433035      19.11195326      18.93430758      18.75705004      18.58018064      18.37575817      18.19911957      18.02202415      17.84447193      17.65200710      17.47307873      17.26498175      17.08532286      16.90588617      16.72667170      16.51831102      16.34076214      16.14945912      15.97521806      15.78818583      15.61973596      15.45605230      15.29713488      15.11362863      14.96994519      14.83777881      14.71712947      14.58416724      14.49527097      14.42004681      14.37286615      14.15502739      14.15502739
         106.79739380     106.79739380     106.79739380     106.78446198     106.76355362     106.73167801     106.69018936     106.63861084     106.57694244     106.50487518     106.42338943     106.33116531     106.23017502     106.11956024     105.99932098     105.86915588     105.72991943     105.58067703     105.42270660     105.25532150     105.07889557     104.89340401     104.69884682     104.49532127     104.28299522     104.06210709     103.83243179     103.59433174     103.34780693     103.09334564     102.83052063     102.56059456     102.28211403     101.99667168     101.70326805     101.40281105     101.09530067     100.78177834     100.46108437     100.13561821      99.80273247      99.46397209      99.11933708      98.77049637      98.41464233      98.05440903      97.68844223      97.31799507      96.94306755      96.56541443      96.18270874      95.79713249      95.40784264      95.01584435      94.62113762      94.22468185      93.82569122      93.42501259      93.02280617      92.61948204      92.21504021      91.80913925      91.40334320      90.99655724      90.59019279      90.18297195      89.77671051      89.37078094      88.96518326      88.55905914      88.15458679      87.74960709      87.34661102      86.94167900      86.54043388      86.13866425      85.73936081      85.34108543      84.94383812      84.54466438      84.14952278      83.75401688      83.36098099      82.96897125      82.57798767      82.18543053      81.79640007      81.40827560      81.02105713      80.63265419      80.24706459      79.86145401      79.47727585      79.09367371      78.71064758      78.32728958      77.94512177      77.56321716      77.18157578      76.80003548      76.41855431      76.03729439      75.65558815      75.27530861      74.89298058      74.51162720      74.12826157      73.74416542      73.35933876      72.97554207      72.58881187      72.20660591      71.81749916      71.43085861      71.03887177      70.64989853      70.25455475      69.85737228      69.45835114      69.06303215      68.66044807      68.26908875      67.86378860      67.46388054      67.05740547      66.65116692      66.24516487      65.84289360      65.44077873      65.04782867      64.66404343      64.44941711      64.45936584      64.33840466      64.38151073      64.41606426      64.44206524      64.45270348      64.45023918      64.43224907      64.39873314      64.35074043      64.28620720      64.20773125      64.11351204      64.00610733      63.88430214      63.75138760      63.60425663      63.44679832      63.27635765      63.09514999      62.90317535      62.70513439      62.49321842      62.27468586      62.04420376      61.80498505      61.55702972      61.30721378      61.04262447      60.77009201      60.48961639      60.20836639      59.91282654      59.61025906      59.30066395      58.98784065      58.66544151      58.34325886      58.00955105      57.67103004      57.32769585      56.98329353      56.63209915      56.28384972      55.92653656      55.56703377      55.20534134      54.84869003      54.48443413      54.11984634      53.75492668      53.39807224      53.03426456      52.67166328      52.31026840      51.96008015      51.60187054      51.25068665      50.89601707      50.54315948      50.19211388      49.84816170      49.50066185      49.16010857      48.81598663      48.48345757      48.14249611      47.80299187      47.46494484      47.13722897      46.80184269      46.46765232      46.13465786      45.81025219      45.47937298      45.15241146      44.82337666      44.49514961      44.16773033      43.84503555      43.51916122      43.19416904      42.87005901      42.54867458      42.22687054      41.90648365      41.58751392      41.27071190      40.95447159      40.64138031      40.32717896      40.01355839      39.70051861      39.38891506      39.07639599      38.76413631      38.45213604      38.13985443      37.82917786      37.52014065      37.21187687      36.90471649      36.59865952      36.29688454      35.99204063      35.69017315      35.38545895      35.08041668      34.77504635      34.47704506      34.17054367      33.86848354      33.56035328      33.25705147      32.94635963      32.63327885      32.31780910      32.01106024      31.68884611      31.36111689      31.02787256      30.69538116      30.34977055      30.01628304      29.65870094      29.34102106      29.06324339      29.02627516      29.30104685      29.02326918      29.12365389      29.27769089      29.48538017      29.78593826      29.95977497      30.10427189      30.22127438      30.31939507      30.39250469      30.44436741      30.47498322      30.48642969      30.47609758      30.44587469      30.39437151      30.31585312      30.22415733      30.10625982      29.97674799      29.82978725      29.66537762      29.47578573      29.27948523      29.05764866      28.83302879      28.56553030      28.31804228      28.06345510      27.80176878      27.50685978      27.24141502      26.97652483      26.71218920      26.43457985      26.17235374      25.91092443      25.65029192      25.38599110      25.12615776      24.86329269      24.60364342      24.33921194      24.07942057      23.81954193      23.55957603      23.29610443      23.03621006      22.77514553      22.51586342      22.25732422      21.99952793      21.74072742      21.48571301      21.23300409      20.98260069      20.73500729      20.49170876      20.25499153      20.02197361      19.79584885      19.57661724      19.37984133      19.17692518      18.98154593      18.79370356      18.64216471      18.46202135      18.29776287      18.12011719      17.95704937      17.78017998      17.60342598      17.42678738      17.27929401      17.10174179      16.93773651      16.75880814      16.59367418      16.41401529      16.23457861      16.05536413      15.90601707      15.72846818      15.56697845      15.39273739      15.22139192      15.05294204      14.90331411      14.74439669      14.60656595      14.46288252      14.35402441      14.23337507      14.12860227      14.03970599      13.98013425      13.93295360      14.15502739      14.15502739
         106.78748322     106.78748322     106.78748322     106.77950668     106.75807953     106.72620392     106.68387985     106.63230133     106.56965256     106.49758530     106.41508865     106.32286453     106.22091293     106.11029816     105.98920441     105.85903931     105.71908569     105.56984329     105.41131210     105.24392700     105.06712723     104.88163567     104.68689537     104.48336983     104.27105904     104.05017090     103.82072067     103.58262062     103.33652306     103.08206177     102.81986618     102.54994011     102.27228355     101.98684120     101.69443703     101.39398003     101.08762932     100.77410698     100.45468712     100.12922096      99.79770851      99.45894814      99.11571312      98.76687241      98.41242599      98.05219269      97.68758011      97.31713295      96.94345284      96.56579971      96.18417358      95.79859734      95.41015053      95.01815224      94.62401009      94.22755432      93.82878494      93.42810631      93.02573967      92.62241554      92.21740150      91.81150055      91.40471268      90.99792671      90.59015083      90.18292999      89.77485275      89.36892319      88.96114731      88.55502319      88.14805984      87.74308014      87.33735657      86.93242455      86.52828407      86.12651443      85.72422028      85.32594490      84.92569160      84.52651787      84.12842369      83.73291779      83.33704758      82.94503784      82.55139160      82.15883446      81.76736641      81.37924194      80.98986053      80.60145760      80.21403313      79.82842255      79.44279099      79.05918884      78.67515182      78.29179382      77.90911484      77.52721024      77.14561081      76.76407051      76.38325691      76.00199699      75.62164497      75.24136543      74.86115837      74.47980499      74.09942627      73.71533012      73.33446693      72.95067024      72.56901360      72.18680763      71.80405235      71.41741180      71.03323746      70.64426422      70.25830460      69.86112213      69.47306824      69.07774925      68.68745613      68.29609680      67.90367126      67.50376320      67.10924721      66.70300865      66.30522346      65.90295219      65.49619484      65.10324478      64.66404343      64.44941711      64.17164040      64.05067921      64.08653355      64.12108707      64.14403820      64.15467644      64.15300179      64.13501167      64.10355949      64.05556679      63.99283409      63.91435814      63.82135391      63.71394920      63.59337044      63.46045589      63.31520557      63.15774727      62.98996162      62.80875397      62.62023354      62.42219257      62.21463108      61.99609852      61.77094936      61.53173065      61.28997231      61.04015636      60.78228283      60.50975037      60.23611641      59.95486641      59.66600037      59.36343288      59.06018543      58.74736214      58.43095589      58.10877323      57.78081417      57.44229317      57.10468292      56.76028061      56.41498947      56.06674004      55.71553230      55.35602951      55.00056648      54.64391518      54.28607559      53.92148781      53.56354141      53.20668697      52.85092449      52.48832321      52.13611412      51.78592587      51.43775845      51.08657455      50.74241638      50.38955879      50.04915428      49.70520210      49.36821747      49.02766418      48.69376183      48.36123276      48.03007698      47.69057274      47.36182976      47.03411388      46.70742512      46.37323475      46.04821491      45.72380924      45.40001774      45.07305622      44.75001240      44.42178535      44.09904480      43.77635002      43.45370102      43.12870884      42.80650425      42.48511982      42.16455555      41.84416866      41.52680492      41.21000290      40.89584541      40.58275414      40.27072906      39.95710850      39.64577389      39.33417034      39.02229786      38.71003819      38.39733982      38.08505821      37.77319336      37.46415615      37.15675831      36.84959793      36.54642868      36.24465370      35.94427299      35.64240551      35.34351444      35.03847218      34.74027920      34.44227791      34.14446831      33.84240818      33.54478931      33.24148750      32.94301414      32.62993336      32.32679653      32.02004766      31.70968676      31.38195753      31.06258535      30.73009396      30.40125465      30.06776714      29.72963142      29.41195154      29.06324339      29.02627516      28.74849653      28.47071886      28.19294214      28.34697914      28.72458458      29.02514267      29.24865341      29.39315033      29.50830746      29.60642815      29.68566704      29.73752975      29.77075481      29.78220129      29.77325869      29.74303579      29.68758059      29.60906219      29.50748062      29.38958311      29.24548388      29.09852314      28.91563988      28.72604799      28.50699472      28.28515816      28.03216648      27.76466799      27.48266268      27.22807550      26.93005228      26.63514328      26.34334850      26.07845831      25.79690313      25.51929379      25.24563026      24.98420095      24.71543264      24.45113182      24.18505096      23.92218590      23.65744019      23.39300871      23.12889147      22.86901283      22.60528469      22.34181309      22.07859802      21.81753349      21.55529881      21.29675961      21.03635883      20.77755833      20.52035809      20.26764917      20.01576090      19.76816750      19.52480316      19.28808594      19.05801582      18.83189106      18.62167454      18.42489862      18.24156332      18.04618406      17.89068460      17.73914576      17.59156752      17.42730904      17.27893543      17.11586761      16.96737766      16.79062366      16.64374352      16.49625015      16.34814358      16.18413830      16.03367996      15.86854601      15.71720648      15.53776979      15.38748503      15.23813796      15.08972859      14.92823887      14.78280830      14.61146283      14.47112441      14.32149649      14.18951845      14.05168772      13.93295765      13.82409954      13.72511339      13.62034059      13.54837775      13.48880601      13.45079112      13.19070244      13.19070244