# File generated by Flopy version 3.3.7 on 06/02/2023 at 13:54:39.
BEGIN options
  SAVE_FLOWS
  NEWTON  UNDER_RELAXATION
END options

BEGIN packages
  DIS6  model_2.dis  dis
  IC6  model_2.ic  ic
  NPF6  model_2.npf  npf
  STO6  model_2.sto  sto
  RCH6  model_2.rcha  rcha_0
  DRN6  model_2.drn  river
  DRN6  model_2_0.drn  gwd
  OC6  model_2.oc  oc
END packages

