# File generated by Flopy version 3.3.7 on 06/02/2023 at 13:54:41.
BEGIN options
END options

BEGIN dimensions
  MAXBOUND  817
END dimensions

BEGIN period  1
  1 19 361       1.11111104     998.45024221
  1 19 360       1.11111104    1006.24628426
  1 19 359       2.07189348    1014.04232631
  1 19 358       2.34967133    1021.83836836
  1 19 357       2.62744910    1029.63441040
  1 19 356       2.90522677    1037.43045245
  1 19 355       3.13585085    1045.83392375
  1 19 354       3.41362876    1069.44346019
  1 19 353       3.69140655    1077.36107439
  1 19 352       3.96918422     726.32781798
  1 18 352       3.58777040     358.95087060
  1 18 351       3.86554813    1093.19630278
  1 18 350       4.14332592    1101.11391697
  1 18 349       4.30632055    1109.03153117
  1 18 348       4.58409822    1143.01687464
  1 18 347       4.58333313     277.51572516
  1 17 347       4.58333313     898.27458406
  1 17 346       4.86111104    1184.06635966
  1 17 345       5.56936252    1175.67923977
  1 16 345       5.57576513      16.66317033
  1 16 344       5.85354304    1200.61846054
  1 16 343       5.69444466    1208.89451098
  1 16 342       5.97222233     895.86777347
  1 15 342       5.97222233     321.30278795
  1 15 341       6.62945545    1202.53451588
  1 15 340       6.90723312    1199.96120708
  1 15 339       7.18501091    1208.01077914
  1 15 338       7.46278882     334.22776733
  1 14 338       7.51792181     881.83258387
  1 14 337       7.79569960    1224.10992327
  1 14 336       8.07347727    1232.15949534
  1 14 335       8.22586656    1239.61753269
  1 14 334       8.50364423      41.96426992
  1 13 334       8.50364423    1202.60763016
  1 13 333       8.47222209    1252.59769768
  1 13 332       8.75000024    1260.62349529
  1 13 331       9.54509902    1220.80759374
  1 12 331       9.49401331      47.84169916
  1 12 330       9.77179098    1276.67509050
  1 12 329       9.91888833    1284.70088811
  1 12 328      10.19666600    1284.82122976
  1 12 327      10.13888907    1276.58870297
  1 12 326      10.41666722     785.83753172
  1 11 326      10.41666722     498.62787546
  1 11 325      11.03534412    1292.34211138
  1 11 324      11.31312132    1300.21881558
  1 11 323      11.59089899    1308.09551979
  1 11 322      11.86867714    1315.97222399
  1 11 321      12.33346200    1323.84892820
  1 11 320      12.61123967    1147.68280432
  1 10 320      12.68023300     184.04282808
  1 10 319      12.95801067    1339.39333588
  1 10 318      13.23578835    1330.55555556
  1 10 317      13.49861026    1338.33333333
  1 10 316      13.77638793    1346.11111111
  1 10 315      14.05416584    1353.88888889
  1 10 314      14.33194399    1361.66666667
  1 10 313      14.60165977    1369.44444444
  1 10 312      14.87943697    1377.31659517
  1 10 311      15.15721464    1385.52689145
  1 10 310      15.43499279    1393.30762811
  1 10 309      15.70692348    1401.08836476
  1 10 308      15.98470163    1408.86910142
  1 10 307      16.26247931    1416.64983807
  1 10 306      16.54025650    1424.43057473
  1 10 305      16.81547308     500.38438674
  1 11 305      16.85901737     931.82692464
  1 11 304      17.13679600    1439.99204804
  1 11 303      17.40520763    1447.87830688
  1 11 302      17.68298435    1456.16353477
  1 11 301      17.94726324    1463.94753229
  1 11 300      18.22504187    1471.73152980
  1 11 299      18.50281954    1479.51552731
  1 11 298      18.78059626    1487.29952482
  1 11 297      18.97646475    1495.08352234
  1 11 296      19.25424337    1516.04735471
  1 11 295      19.53202152    1524.41244589
  1 11 294      19.80979919    1532.26734992
  1 11 293      19.95478582    1540.12225394
  1 11 292      20.23256350    1357.28431967
  1 12 292      20.23256350     190.69283830
  1 12 291      20.13888884    1547.63682151
  1 12 290      20.41666651    1551.63155582
  1 12 289      20.97168016    1559.42590164
  1 12 288      21.24945784    1567.22024745
  1 12 287      21.61836910    1575.01459326
  1 12 286      21.89614773    1582.80893908
  1 12 285      22.20606136    1590.60328489
  1 12 284      22.48383808    1598.39763070
  1 12 283      22.74960613    1606.19197652
  1 12 282      23.02738476    1613.98632233
  1 12 281      23.30516243    1621.78066814
  1 12 280      23.58293915    1629.57501396
  1 12 279      23.83447790    1637.36935977
  1 12 278      24.11225653    1645.16370558
  1 12 277      24.24866438    1121.00843004
  1 13 277      24.69201612     531.94962135
  1 13 276      24.96979380    1659.10790576
  1 13 275      25.24757147    1665.00000000
  1 13 274      25.52534914    1672.77777778
  1 13 273      25.79522181    1680.55555556
  1 13 272      26.07299948    1688.33333333
  1 13 271      26.34687042    1696.11111111
  1 13 270      26.62464809    1703.88888889
  1 13 269      26.89847851    1711.66666667
  1 13 268      27.17625713    1719.44444444
  1 13 267      27.45002747    1727.22222222
  1 13 266      27.72780418    1735.17850163
  1 13 265      28.00558186    1743.60256617
  1 13 264      28.28336048    1751.38402487
  1 13 263      28.55707026    1759.16548356
  1 13 262      28.83484697    1766.94694226
  1 13 261      29.10445356    1774.72840095
  1 13 260      29.38223219    1782.50985965
  1 13 259      29.65608931    1790.29131834
  1 13 258      29.93386698    1799.04277828
  1 13 257      30.21164465    1812.67362931
  1 13 256      30.48942232    1820.48447289
  1 13 255      30.76365519    1828.29531648
  1 13 254      31.04143286     283.20892117
  1 12 254      30.46059561    1552.89723890
  1 12 253      30.74569893    1843.91700365
  1 12 252      31.02347660    1851.72784724
  1 12 251      31.29992247    1859.53869082
  1 12 250      31.57770109    1867.81895111
  1 12 249      31.85547876    1882.05966995
  1 12 248      32.13325548    1889.89925203
  1 12 247      32.40009212    1897.73883411
  1 12 246      32.67787075    1905.57841620
  1 12 245      33.21909809     683.36357081
  1 11 245      33.21909809    1230.05442746
  1 11 244      33.49687481    1918.71748924
  1 11 243      33.77465248    1913.88888889
  1 11 242      34.05243111    1921.66666667
  1 11 241      34.45540714    1929.44444444
  1 11 240      34.73318386    1937.22222222
  1 11 239      35.01096153    1945.00000000
  1 11 238      35.28874016    1952.77777778
  1 11 237      35.52092266    1960.55555556
  1 11 236      35.79870129    1968.33333333
  1 11 235      35.97496796    1976.11111111
  1 11 234      36.25274467    1983.88888889
  1 11 233      36.53052235    1997.38618833
  1 11 232      36.80830097    2018.70359086
  1 11 231      36.80555630      83.39090308
  1 12 231      36.80555630    1943.16538305
  1 12 230      37.08333302    2034.40898140
  1 12 229      37.44376659    2042.26167667
  1 12 228      37.72154522    2050.11437194
  1 12 227      38.01095581    2057.96706720
  1 12 226      38.28873253    2066.10281693
  1 12 225      38.56651020    2075.50225766
  1 12 224      38.84428883     351.00118666
  1 13 224      39.20630550    1732.36069546
  1 13 223      39.38727188    2091.22150657
  1 13 222      39.66504860    2099.08113103
  1 13 221      39.94282627    2106.94075548
  1 13 220      40.22060490    2114.80037994
  1 13 219      40.13888931    2122.66000439
  1 13 218      40.41666794    2130.51962884
  1 13 217      40.69444561      92.97301101
  1 14 217      40.69444561    2045.40624228
  1 14 216      40.97222233    2146.23887775
  1 14 215      41.34931183    2138.04752499
  1 14 214      41.62709045    2144.19349456
  1 14 213      41.90486813    2151.98853713
  1 14 212      42.18264484    2159.78357969
  1 14 211      42.48250198    2167.57862226
  1 14 210      42.76028061    2175.37366483
  1 14 209      43.04451656    2183.16870739
  1 14 208      43.32229328    2190.96374996
  1 14 207      43.60007095    2198.75879253
  1 14 206      43.87784958    2206.55383509
  1 14 205      44.16653538    1375.37197370
  1 15 205      44.02777767     838.97690396
  1 15 204      44.30555439    2219.39204339
  1 15 203      44.59226799    1406.89213628
  1 14 203      44.72208977     819.24677223
  1 14 202      44.99986839    2233.92066750
  1 14 201      45.28826618    2241.70242648
  1 14 200      45.56604481    2249.48418546
  1 14 199      45.84382248    2257.26594444
  1 14 198      46.12159920    2265.04770342
  1 14 197      46.40498352    2272.82946240
  1 14 196      46.68276215    2287.67995606
  1 14 195      46.97295380    2295.76039664
  1 14 194      47.25073051     938.05978338
  1 15 194      47.13202953    1365.50742538
  1 15 193      47.40980721    2311.37402090
  1 15 192      47.68758583    2319.18083304
  1 15 191      47.97172356    2326.98764517
  1 15 190      48.24950027    2334.79445730
  1 15 189      48.52727795    2342.60126944
  1 15 188      48.80505657    2350.40808157
  1 15 187      49.06847954    2358.21489370
  1 15 186      49.34625626    2366.02170584
  1 15 185      49.62403393    2387.60249108
  1 15 184      49.90181255    1690.46579146
  1 16 184      49.90181255     720.44457451
  1 16 183      50.13888931    2418.81313935
  1 16 182      50.41666794    2426.71591273
  1 16 181      50.81347561    2434.61868612
  1 16 180      51.09125233    2442.52145950
  1 16 179      51.41603088    2450.42423289
  1 16 178      51.69380951     631.12328939
  1 17 178      51.60184002    1827.20371688
  1 17 177      51.85719299    2466.22977965
  1 17 176      52.13496971    2474.13255304
  1 17 175      52.41274738    2482.03532642
  1 17 174      52.69052601    2489.93809981
  1 17 173      52.91666698    2028.95701018
  1 18 173      52.91666698     467.01843895
  1 18 172      53.19444370    2468.08321148
  1 18 171      53.63073635    2475.86720899
  1 18 170      53.90851498    2483.65120650
  1 18 169      54.18629265    2491.43520401
  1 18 168      54.46406937    2499.21920153
  1 18 167      54.76279163    2507.00319904
  1 18 166      55.04057026    2514.78719655
  1 18 165      55.31834888    2522.57119407
  1 18 164      55.59612751    2530.35519158
  1 18 163      55.85389137    2538.13918909
  1 18 162      56.13166809    2545.92318661
  1 18 161      56.40944576    2553.70718412
  1 18 160      56.68722439    2577.10331344
  1 18 159      56.92294407    2594.23747164
  1 18 158      57.20072079    2602.09709610
  1 18 157      57.36111069    2504.58579705
  1 17 157      57.36111069     105.37092350
  1 17 156      57.63888931    2617.81634501
  1 17 155      58.02400112    2625.67596946
  1 17 154      58.30177784    2633.53559391
  1 17 153      58.57955551    2641.39521837
  1 17 152      58.85733414    2649.25484282
  1 17 151      59.16386318    2657.11446728
  1 17 150      59.44163990    1928.42567260
  1 16 150      59.42130184     774.21989569
  1 16 149      59.69907951    2772.55494784
  1 16 148      59.97685814    2780.70780843
  1 16 147      60.13888931    2514.85628934
  1 15 147      60.13888931     274.00437968
  1 15 146      60.41666794    2797.01352961
  1 15 145      60.79289722    2805.16639020
  1 15 144      61.07067394    2813.31925079
  1 15 143      61.34845161     235.78648926
  1 14 143      61.35402107    2585.68562212
  1 14 142      61.63179970    2829.62497197
  1 14 141      61.80555630    2070.78952354
  1 13 141      61.80555630    1379.38406785
  1 13 140      62.08333302    2558.57985282
  1 12 140      62.21530056    1186.25065903
  1 12 139      62.36111069    2763.57050018
  1 11 139      62.36111069     991.98798940
  1 11 138      62.63888931    2969.69040835
  1 10 138      62.78533077     796.59605896
  1 10 137      62.94212723    3176.93957734
  1 9 137      62.94212723     600.07486770
  1 9 136      63.21990395    2997.87787426
  1 8 136      63.34913540    1582.91984096
  1 8 135      63.50934696    1738.35737718
  1 7 135      63.50934696    3173.53505823
  1 7 134      63.78712559     152.65537354
  1 6 134      63.90681648    3335.15341156
  1 5 134      63.90681648    1437.95625351
  1 5 133      64.07848072    1902.54030032
  1 4 133      64.17164040    3037.09734150
  1 4 132      64.44941711     308.31242597
  1 3 132      64.44941711    3665.86858370
  1 2 132      64.44941711     332.09016563
  1 2 131      64.63633537    3539.01165075
  1 1 131      64.63633537     469.68015192
  1 1 130      64.91411400    3411.85358282
  1 14 141      61.80555630    1516.22334353
  1 14 140      62.08333302    1583.65667664
  1 15 140      62.16049862    1437.98348015
  1 15 139      62.36111069    3030.29637987
  1 15 138      62.63888931    1735.68521644
  1 16 138      62.63888931    1303.26738651
  1 16 137      62.93696117    2960.38940604
  1 16 136      63.21473789    2795.48335470
  1 16 135      63.49251556    2803.40096889
  1 16 134      63.77029419     309.94350838
  1 17 134      63.89453220    2501.37507470
  1 17 133      64.15756130    2819.23619728
  1 17 132      64.43533802    2827.15381148
  1 17 131      64.71311569    2835.07142567
  1 17 130      64.99089432    2816.92583153
  1 17 129      65.13888931    2818.78556451
  1 17 128      65.41666794     403.80199588
  1 18 128      65.41666794    2422.81197528
  1 18 127      65.74465179    2834.44237780
  1 18 126      66.02243042    2842.27078445
  1 18 125      66.30020714    2850.09919110
  1 18 124      66.57798195    2859.29470579
  1 18 123      66.89422989    2870.45190446
  1 18 122      67.17200851    2878.29313893
  1 18 121      67.44978714    2886.13437340
  1 18 120      67.72756577    1286.33620769
  1 19 120      67.80723763    1607.63940018
  1 19 119      68.07581902    2901.81684234
  1 19 118      68.35359764    2909.65807681
  1 19 117      68.57581520    2917.49931128
  1 19 116      68.85359001    2952.35036982
  1 19 115      69.02777481    2984.47869597
  1 19 114      69.30555344    1770.38220580
  1 20 114      69.30555344    1222.07485597
  1 20 113      69.58333206    3000.43542758
  1 20 112      69.86111069    3008.41379339
  1 20 111      70.26153183    3016.39215920
  1 20 110      70.53931046    2923.40163326
  1 21 110      70.59964752     101.01663133
  1 21 109      70.80697060    3040.05523837
  1 21 108      71.08474922    3048.05388023
  1 21 107      71.25000191    3056.05252209
  1 21 106      71.52777672    3064.05116395
  1 21 105      71.90371895     413.42285171
  1 22 105      71.90371895    2658.62695410
  1 22 104      72.18149757    3080.04844767
  1 22 103      72.45927620    3088.04708953
  1 22 102      72.73705482    3096.04573139
  1 22 101      73.05883026     935.06926772
  1 23 101      73.07908821    2168.97510553
  1 23 100      73.35686684    3146.73842234
  1 23 99      73.47222328    3170.49496980
  1 23 98      73.74999809    2567.48737310
  1 24 98      73.74999809     611.13558234
  1 24 97      74.14329338    3186.75094108
  1 24 96      74.42107201    3194.87892672
  1 24 95      74.69885063    3203.00691236
  1 24 94      74.97662926     331.35793484
  1 25 94      74.98138237    2879.77696315
  1 25 93      75.13888931    3219.26288364
  1 25 92      75.41666794    3227.39086928
  1 25 91      75.81793022    1273.14576441
  1 26 91      75.81793022    1976.64513248
  1 26 90      76.09570885    3264.58839588
  1 26 89      76.43418694    3272.76885723
  1 26 88      76.71196175    1513.10861431
  1 27 88      76.64803505    1767.84070426
  1 27 87      76.92581177    3289.12977992
  1 27 86      77.20359039    3297.31024127
  1 27 85      77.36111069    1749.80097894
  1 28 85      77.36111069    1555.68972367
  1 28 84      77.63888931    3313.67116396
  1 28 83      78.11997604    3381.02413495
  1 28 82      78.39775467    1040.47823780
  1 29 82      78.30738258    2488.51707565
  1 29 81      78.58515930    3537.66454215
  1 29 80      78.86293411    1156.41318615
  1 30 80      78.86293411    2389.92058471
  1 30 79      79.02777481    3583.13842012
  1 30 78      79.30555344    1021.04965450
  1 31 78      79.49093437    2650.73802814
  1 31 77      79.58333206    3680.71992027
  1 31 76      79.86111069     180.47211642
  1 32 76      79.86111069    3509.18004148
  1 32 75      80.31914711    3031.90115757
  1 33 75      80.28697777     666.68323796
  1 33 74      80.56475639    3707.51663316
  1 33 73      80.69444656    2290.30822603
  1 34 73      80.69444656    1378.19473200
  1 34 72      80.97222519    3676.40740741
  1 34 71      81.39303589    1839.74991373
  1 35 71      81.38479424    1845.47230849
  1 35 70      81.66256905    3694.03703704
  1 35 69      81.80555344    1385.69455947
  1 36 69      81.80555344    2317.15729239
  1 36 68      82.08333206    3711.66666667
  1 36 67      82.51533508     927.23179779
  1 37 67      82.49778175    2731.66834108
  1 37 66      82.77556038    3594.99783025
  1 37 65      82.91666794    1658.29960174
  1 38 65      82.91666794    1945.19560646
  1 38 64      83.19444656    3611.99258616
  1 38 63      83.71262360    2653.52680600
  1 39 63      83.59666824     966.96315812
  1 39 62      83.87444305    3628.98734207
  1 39 61      84.15221977    3614.83044628
  1 39 60      84.42999840     200.45301702
  1 40 60      84.42999840    3354.13261923
  1 40 59      84.79283333    3562.87000431
  1 40 58      85.07061195    2796.27541655
  1 41 58      85.08374214     774.87895581
  1 41 57      85.29297066    3579.43874042
  1 41 56      85.57074928    3587.72310847
  1 41 55      85.69444656    1832.67526396
  1 42 55      85.69444656    1763.33221257
  1 42 54      85.97222519    3604.29184458
  1 42 53      86.90413094    2984.30208870
  1 15 212      42.41306782    1846.49609060
  1 15 211      42.36111069    2312.85913255
  1 15 210      42.63888931     156.18683346
  1 16 210      42.63888931    2164.98979918
  1 16 209      42.91666698    2329.49413273
  1 16 208      43.19444370    1650.90804230
  1 17 208      43.55621147     686.90359053
  1 17 207      43.47222137    2346.12913292
  1 17 206      43.75000000    1897.66773201
  1 18 206      43.75000000     875.62392522
  1 18 205      44.03671360    2658.11959642
  1 19 205      44.02777767     171.34985828
  1 19 204      44.30555439    2839.42987018
  1 19 203      44.60124207     539.79132741
  1 20 203      44.60124207    2309.59895825
  1 20 202      44.87902069    1256.51591370
  1 21 202      45.13912582    1602.83478744
  1 21 201      45.13888931    1421.74578377
  1 22 201      45.13888931    2466.73311130
  1 23 201      45.39982510    1297.93499113
  1 23 200      45.67760372    1172.85544070
  1 24 200      45.67760372    2475.29603308
  1 25 200      45.88980865    1726.77705520
  1 25 199      45.72730923     751.10836896
  1 26 199      45.72730923    2925.27473169
  1 26 198      46.00508595     159.99842643
  1 27 198      45.97222233    2978.24482084
  1 27 197      46.29035282     291.75748685
  1 28 197      46.29035282    2857.26745501
  1 28 196      46.56813145     424.41502182
  1 29 196      46.93279552    2735.39161463
  1 29 195      46.80555630     557.97103134
  1 30 195      46.80555630    2612.61729970
  1 30 194      47.08333302     692.42551541
  1 31 194      47.52017021    2488.94451022
  1 31 193      47.36111069     827.77847403
  1 32 193      47.36111069    2031.97487312
  1 32 192      47.63888931    2592.74145788
  1 32 191      47.98287201     134.45925174
  1 33 191      47.91666698    2467.00987635
  1 33 190      48.19444370    2610.19679831
  1 33 189      48.52027130      41.82842984
  1 34 189      48.52027130    2577.09603867
  1 34 188      48.79804993    2575.77524424
  1 35 188      49.28256512      51.87689449
  1 35 187      49.35210705    2636.37980894
  1 35 186      49.62988377    2339.76812488
  1 36 186      49.62988377     359.04524299
  1 36 185      49.58333206    2729.27148111
  1 36 184      49.86111069    1654.23959746
  1 37 184      50.35267067    1084.00764140
  1 37 183      50.43231297    2747.22299661
  1 37 182      50.71009159     937.75430359
  1 38 182      50.71009159    1818.44445077
  1 38 181      50.69444561    2765.17451210
  1 38 180      50.97222233     211.79459876
  1 39 180      50.97222233    2562.35567109
  1 39 179      51.25000000    2261.16985231
  1 40 179      51.25000000     521.95617529
  1 40 178      51.52777863    2744.52472639
  1 40 177      51.89790916    1838.88466184
  1 41 177      51.80555630     911.96719002
  1 41 176      52.08333302    2759.66666667
  1 41 175      52.36111069    1504.60950081
  1 42 175      52.36111069    1263.87198068
  1 42 174      52.63888931    2777.29629630
  1 42 173      52.98055935    1165.92693237
  1 43 173      53.22161198    1620.18417874
  1 43 172      53.49938869    2794.92592593
  1 43 171      53.47222137     822.83695652
  1 44 171      53.47222137    1980.90378422
  1 44 170      53.75000000    2812.55555556
  1 44 169      54.09557056     475.33957327
  1 45 169      54.33073044    2346.03079710
  1 45 168      54.60850716    2830.18518519
  1 45 167      54.64994717     123.43478261
  1 46 167      54.64994717    2525.74291683
  1 46 166      54.92772579    2600.58674634
  1 46 165      55.23693466    2608.63631840
  1 46 164      55.51471329    1588.70214779
  1 47 164      55.74550915    1027.98374268
  1 47 163      55.91299248    2624.73546253
  1 47 162      56.19076920    2632.78503460
  1 47 161      56.46854687    2640.83460666
  1 47 160      56.74632549     946.03006383
  1 48 160      56.74632549    1702.85411490
  1 48 159      56.89596939    2656.93375079
  1 48 158      57.17374611    2775.69350067
  1 48 157      57.45152378     986.76469073
  1 49 157      57.58990097    1931.17473811
  1 49 156      57.86767960    2926.72651251
  1 49 155      57.91666698     705.53796938
  1 50 155      57.91666698    2229.97562681
  1 50 154      58.19444370    2944.30067986
  1 50 153      58.62151146     420.87282398
  1 51 153      58.47222137    2532.21493955
  1 51 152      58.75000000    2961.87484721
  1 51 151      59.12695980     132.76925454
  1 52 151      59.12695980    2837.89267634
  1 52 150      59.40473652    2821.14315617
  1 53 150      59.51862335     158.30585839
  1 53 149      59.79640102    2988.23609823
  1 53 148      60.07417965    2544.59651199
  1 54 148      60.07417965     452.42666991
  1 54 147      60.24657631    3051.81932795
  1 54 146      60.52435493    1894.87050085
  1 55 146      60.61052418    1198.75997346
  1 55 145      60.88830185    3102.64792729
  1 55 144      61.16607857     986.56132751
  1 56 144      61.16607857    2125.10405276
  1 56 143      61.25000000    3120.68283324
  1 56 142      61.52777863      67.59516428
  1 57 142      61.52777863    3062.10512193
  1 57 141      61.91368389    2279.15923919
  1 58 141      61.91368389     859.55850000
  1 58 140      62.19146061    3147.73519217
  1 58 139      62.54241467    1359.57824962
  1 59 139      62.57175732    1797.17439552
  1 59 138      62.84953594    3118.31645260
  1 59 137      62.91666698     791.02958150
  1 60 137      62.91666698    2205.57659783
  1 60 136      63.19444370    3005.11753792
  1 60 135      63.68036747    1548.93038004
  1 61 135      63.68283749    1464.69851647
  1 61 134      63.96061611    3022.14025511
  1 61 133      64.02777767    2315.34253718
  1 62 133      64.02777767     715.30907653
  1 62 132      64.30555439    3039.16297229
  1 62 131      64.82320786    3047.67433089
  1 62 130      65.10098648      42.71066957
  1 63 130      65.08337784    3013.47501991
  1 63 129      65.13888931    3064.69704808
  1 63 128      65.41666794     811.25066636
  1 64 128      65.41666794    2261.95774031
  1 64 127      66.20090485    2813.74413350
  1 12 275      24.58333349     416.24197072
  1 12 274      24.86111116    1672.74551062
  1 11 274      24.86111116     197.47690056
  1 11 273      25.13888884    1878.91823109
  1 11 272      25.41666651    1688.30076612
  1 10 272      25.81131506     199.31328489
  1 10 271      25.69444418    1896.30987092
  1 10 270      25.97222185    1703.85602161
  1 9 270      25.97222185     201.14966922
  1 9 269      26.25805473    1913.70151074
  1 9 268      26.53583336    1719.41127711
  1 8 268      26.78132391     202.98605355
  1 8 267      27.05910158    1931.09315057
  1 8 266      27.33687830    1734.96653260
  1 7 266      27.33687830     204.82243788
  1 7 265      27.37910223    2008.39940012
  1 7 264      27.65688086    1131.83674624
  1 6 264      27.63888931    1035.98086545
  1 6 263      27.93880033    1940.44801471
  1 5 263      27.93880033     237.00128424
  1 5 262      28.21657705    2187.08098621
  1 5 261      28.49435472     571.59360381
  1 4 261      28.74849653    1625.11906966
  1 4 260      29.02627516    1388.34594128
  1 3 260      29.02627516     817.99841946
  1 3 259      29.06324339    2212.20738125
  1 2 259      29.02777815       3.76866675
  1 2 258      29.30555582    2246.17214352
  1 2 257      29.62323570     692.17956643
  1 1 257      29.62323570    1687.63368517
  1 1 256      29.90101337    1086.63882120
END period  1

