# File generated by Flopy version 3.3.7 on 06/02/2023 at 13:54:37.
BEGIN options
  SAVE_FLOWS
  NEWTON  UNDER_RELAXATION
END options

BEGIN packages
  DIS6  model_1.dis  dis
  IC6  model_1.ic  ic
  NPF6  model_1.npf  npf
  STO6  model_1.sto  sto
  RCH6  model_1.rcha  rcha_0
  DRN6  model_1.drn  river
  DRN6  model_1_0.drn  gwd
  OC6  model_1.oc  oc
END packages

