# File generated by Flopy version 3.3.7 on 06/02/2023 at 13:54:37.
BEGIN griddata
  strt
    INTERNAL  FACTOR  1.0
         101.72914124     101.72914124     101.72914124     101.72914124     101.72914124     101.72914124     101.72914124     101.72914124     101.09039307     101.09039307     101.09039307     101.09039307     101.09845734     101.09845734     101.09845734     101.09845734     101.13024139     101.13024139     101.13024139     101.13024139     101.17488098     101.17488098     101.17488098     101.22142792     101.22142792     101.22142792     101.22142792     101.25666046     101.25666046     101.25666046     101.25666046     101.25666046     101.25666046     101.25666046     101.25666046     101.25666046     101.25666046     101.25666046     101.25666046     101.25666046     101.25666046     101.28726959     101.28726959     101.28726959     101.28726959     101.28726959     101.28726959     101.28726959     101.28726959     101.28726959     101.23593903     101.23593903     101.23593903     101.23593903     101.23593903     101.23593903     101.23593903     101.23593903     101.23593903     101.23593903     101.23593903     101.23593903     101.02922058     101.02922058     101.02922058     101.02922058     101.02922058     101.02922058     101.02922058     100.70333862     100.70333862     100.70333862     100.70333862     100.70333862     100.70333862     100.70333862     100.61952209     100.61952209     100.49099731     100.49099731     100.33164215      99.61818695      99.61818695      99.61818695      99.61818695      99.61818695      99.61818695      99.61818695      99.48647308      99.48647308      99.29307556      99.29307556      99.06137085      99.06137085      98.80005646      98.80005646      97.70894623      97.70894623      97.70894623      97.70894623      97.70894623      97.70894623      97.52515411      97.52515411      97.26135254      97.26135254      96.95259857      96.95259857      96.61321259      96.61321259      96.25077057      96.25077057      95.87101746      95.87101746      95.48061371      95.48061371      95.09060669      95.09060669      94.72487640      94.72487640      94.44600677      94.44600677      94.44600677      94.44600677      94.44600677      94.44600677      92.22425842      92.22425842      91.63829041      91.63829041      91.07604218      91.07604218      90.56587982      90.56587982      90.18769073      90.18769073      90.18769073      90.18769073      90.18769073      90.18769073      90.18769073      87.50148010      87.03125000      87.03125000      87.03125000      87.03125000      87.03125000      87.03125000      87.03125000      83.85086823      83.31587219      83.31587219      83.31587219      83.31587219      83.31587219      83.31587219      83.31587219      83.31587219      80.09763336      80.09763336      80.09763336      80.09763336      80.09763336      80.09763336      80.09763336      75.64496613      75.64496613      75.64496613      75.64496613      75.64496613      75.64496613      75.64496613      75.64496613      71.40554810      70.97997284      70.97997284      70.97997284      70.97997284      70.97997284      70.97997284      70.97997284      70.97997284      70.97997284      70.97997284      67.95307159      67.95307159      67.70229340      67.70229340      67.49756622      67.49756622      67.32968903      67.32968903      67.19194031      67.19194031      67.08169556      67.08169556      67.00645447      67.00645447      67.00645447      67.00645447      67.00645447      67.00645447      67.00645447      67.00645447      67.00645447      67.00645447      66.32443237      66.32443237      66.26735687      66.26735687      66.26735687      66.26735687      66.26735687      66.26735687      66.26735687      66.26735687      66.26735687      66.26735687      66.26735687      65.70725250      65.70725250      65.70725250      65.70725250      65.70725250      65.70725250      65.70725250      65.70725250      65.70725250      65.15328217      65.15328217      65.15328217      65.15328217      65.15328217      65.15328217      65.15328217      65.15328217      65.15328217      65.15328217      64.65097809      63.83684158      63.83684158      63.83684158      63.83684158      63.83684158      63.83684158      63.83684158      63.83684158      63.83684158      63.83684158      63.83684158      63.17837143      62.15637970      62.15637970      62.15637970      62.15637970      62.15637970      62.15637970      62.15637970      62.15637970      62.15637970      62.15637970      62.15637970      60.18175125      60.18175125      60.18175125      60.18175125      60.18175125      60.18175125      60.18175125      60.18175125      60.18175125      60.18175125      60.18175125      60.18175125      59.30734634      59.30734634      59.30734634      59.30734634      59.30734634      58.35778427      58.35778427      58.35778427      58.35778427      58.35778427      52.93722153      52.93722153      52.93722153      52.93722153      52.93722153      52.93722153      52.93722153      52.93722153      52.93722153      52.93722153      52.93722153      52.93722153      52.93722153      52.93722153      52.93722153      51.20437241      51.20437241      51.20437241      51.20437241      51.20437241      51.20437241      51.20437241      51.20437241      51.20437241      51.20437241      51.20437241      51.20437241      51.20437241      51.20437241      51.20437241      51.20437241      51.20437241      51.20437241      51.20437241      50.16458130      50.16458130      50.16458130      50.16458130      50.16458130      48.97345734      48.97345734      48.97345734      48.97345734      48.97345734      47.71946335      47.71946335      47.71946335      47.71946335      47.71946335      47.71946335      47.71946335      47.71946335      47.71946335      47.71946335      47.71946335      47.71946335      47.71946335      47.71946335      47.71946335      47.71946335      47.71946335      47.71946335      47.71946335      47.71946335      47.71946335      47.71946335      47.71946335      44.04087067      44.04087067      44.04087067      44.04087067      44.04087067      40.99962997      40.99962997      40.99962997      40.99962997      40.99962997
         102.49778748     101.72914124     101.72914124     101.72914124     101.72914124     101.72914124     101.72914124     101.72914124     101.09039307     101.09039307     101.09039307     101.09039307     101.09039307     101.09845734     101.09845734     101.09845734     101.09845734     101.13024139     101.13024139     101.13024139     101.13024139     101.17488098     101.17488098     101.17488098     101.22142792     101.22142792     101.22142792     101.22142792     101.25666046     101.25666046     101.25666046     101.25666046     101.25666046     101.25666046     101.25666046     101.25666046     101.25666046     101.25666046     101.25666046     101.25666046     101.25666046     101.25666046     101.28726959     101.28726959     101.28726959     101.28726959     101.28726959     101.28726959     101.28726959     101.28726959     101.23593903     101.23593903     101.23593903     101.23593903     101.23593903     101.23593903     101.23593903     101.23593903     101.23593903     101.23593903     101.23593903     101.23593903     101.02922058     101.02922058     101.02922058     101.02922058     101.02922058     101.02922058     101.02922058     100.70333862     100.70333862     100.70333862     100.70333862     100.70333862     100.70333862     100.70333862     100.61952209     100.61952209     100.49099731     100.49099731     100.33164215     100.33164215      99.61818695      99.61818695      99.61818695      99.61818695      99.61818695      99.61818695      99.48647308      99.48647308      99.29307556      99.29307556      99.06137085      99.06137085      98.80005646      98.80005646      97.70894623      97.70894623      97.70894623      97.70894623      97.70894623      97.70894623      97.52515411      97.52515411      97.26135254      97.26135254      96.95259857      96.95259857      96.61321259      96.61321259      96.25077057      96.25077057      95.87101746      95.87101746      95.48061371      95.48061371      95.09060669      95.09060669      94.72487640      94.72487640      94.44600677      94.44600677      94.44600677      94.44600677      94.44600677      94.44600677      92.22425842      92.22425842      91.63829041      91.63829041      91.07604218      91.07604218      90.56587982      90.56587982      90.18769073      90.18769073      90.18769073      90.18769073      90.18769073      90.18769073      87.50148010      87.50148010      87.03125000      87.03125000      87.03125000      87.03125000      87.03125000      87.03125000      87.03125000      83.85086823      83.31587219      83.31587219      83.31587219      83.31587219      83.31587219      83.31587219      83.31587219      83.31587219      80.09763336      80.09763336      80.09763336      80.09763336      80.09763336      80.09763336      75.64496613      75.64496613      75.64496613      75.64496613      75.64496613      75.64496613      75.64496613      75.64496613      75.64496613      71.40554810      70.97997284      70.97997284      70.97997284      70.97997284      70.97997284      70.97997284      70.97997284      70.97997284      70.97997284      68.26151276      67.95307159      67.95307159      67.70229340      67.70229340      67.49756622      67.49756622      67.32968903      67.32968903      67.19194031      67.19194031      67.08169556      67.08169556      67.00645447      67.00645447      67.00645447      67.00645447      67.00645447      67.00645447      67.00645447      67.00645447      67.00645447      67.00645447      66.32443237      66.32443237      66.26735687      66.26735687      66.26735687      66.26735687      66.26735687      66.26735687      66.26735687      66.26735687      66.26735687      66.26735687      65.70725250      65.70725250      65.70725250      65.70725250      65.70725250      65.70725250      65.70725250      65.70725250      65.70725250      65.70725250      65.15328217      65.15328217      65.15328217      65.15328217      65.15328217      65.15328217      65.15328217      65.15328217      65.15328217      65.15328217      64.65097809      63.83684158      63.83684158      63.83684158      63.83684158      63.83684158      63.83684158      63.83684158      63.83684158      63.83684158      63.83684158      63.83684158      62.15637970      62.15637970      62.15637970      62.15637970      62.15637970      62.15637970      62.15637970      62.15637970      62.15637970      62.15637970      62.15637970      62.15637970      60.18175125      60.18175125      60.18175125      60.18175125      60.18175125      60.18175125      60.18175125      60.18175125      60.18175125      60.18175125      60.18175125      60.18175125      59.30734634      59.30734634      59.30734634      59.30734634      59.30734634      58.35778427      58.35778427      58.35778427      58.35778427      58.35778427      52.93722153      52.93722153      52.93722153      52.93722153      52.93722153      52.93722153      52.93722153      52.93722153      52.93722153      52.93722153      52.93722153      52.93722153      52.93722153      52.93722153      52.93722153      51.20437241      51.20437241      51.20437241      51.20437241      51.20437241      51.20437241      51.20437241      51.20437241      51.20437241      51.20437241      51.20437241      51.20437241      51.20437241      51.20437241      51.20437241      51.20437241      51.20437241      51.20437241      51.20437241      50.16458130      50.16458130      50.16458130      50.16458130      50.16458130      48.97345734      48.97345734      48.97345734      48.97345734      48.97345734      47.71946335      47.71946335      47.71946335      47.71946335      47.71946335      47.71946335      47.71946335      47.71946335      47.71946335      47.71946335      47.71946335      47.71946335      47.71946335      47.71946335      47.71946335      47.71946335      47.71946335      47.71946335      47.71946335      47.71946335      47.71946335      47.71946335      44.04087067      44.04087067      44.04087067      44.04087067      44.04087067      44.04087067      40.99962997      40.99962997      40.99962997      40.99962997      40.99962997
         102.49778748     102.49778748     101.72914124     101.72914124     101.72914124     101.72914124     101.72914124     101.72914124     101.72914124     101.09039307     101.09039307     101.09039307     101.09039307     101.09039307     101.09845734     101.09845734     101.09845734     101.09845734     101.13024139     101.13024139     101.13024139     101.13024139     101.17488098     101.17488098     101.17488098     101.22142792     101.22142792     101.22142792     101.22142792     101.25666046     101.25666046     101.25666046     101.25666046     101.25666046     101.25666046     101.25666046     101.25666046     101.25666046     101.25666046     101.25666046     101.25666046     101.25666046     101.28726959     101.28726959     101.28726959     101.28726959     101.28726959     101.28726959     101.28726959     101.28726959     101.28726959     101.23593903     101.23593903     101.23593903     101.23593903     101.23593903     101.23593903     101.23593903     101.23593903     101.23593903     101.23593903     101.23593903     101.23593903     101.02922058     101.02922058     101.02922058     101.02922058     101.02922058     101.02922058     100.70333862     100.70333862     100.70333862     100.70333862     100.70333862     100.70333862     100.70333862     100.61952209     100.61952209     100.49099731     100.49099731     100.33164215     100.33164215      99.61818695      99.61818695      99.61818695      99.61818695      99.61818695      99.61818695      99.48647308      99.48647308      99.29307556      99.29307556      99.06137085      99.06137085      98.80005646      98.80005646      98.51192474      97.70894623      97.70894623      97.70894623      97.70894623      97.70894623      97.52515411      97.52515411      97.26135254      97.26135254      96.95259857      96.95259857      96.61321259      96.61321259      96.25077057      96.25077057      95.87101746      95.87101746      95.48061371      95.48061371      95.09060669      95.09060669      94.72487640      94.72487640      94.44600677      94.44600677      94.44600677      94.44600677      94.44600677      92.82556915      92.22425842      92.22425842      91.63829041      91.63829041      91.07604218      91.07604218      90.56587982      90.56587982      90.18769073      90.18769073      90.18769073      90.18769073      90.18769073      90.18769073      87.50148010      87.50148010      87.03125000      87.03125000      87.03125000      87.03125000      87.03125000      87.03125000      87.03125000      83.85086823      83.31587219      83.31587219      83.31587219      83.31587219      83.31587219      83.31587219      83.31587219      80.09763336      80.09763336      80.09763336      80.09763336      80.09763336      80.09763336      80.09763336      75.64496613      75.64496613      75.64496613      75.64496613      75.64496613      75.64496613      75.64496613      75.64496613      75.64496613      71.40554810      70.97997284      70.97997284      70.97997284      70.97997284      70.97997284      70.97997284      70.97997284      70.97997284      70.97997284      68.26151276      67.95307159      67.95307159      67.70229340      67.70229340      67.49756622      67.49756622      67.32968903      67.32968903      67.19194031      67.19194031      67.08169556      67.08169556      67.00645447      67.00645447      67.00645447      67.00645447      67.00645447      67.00645447      67.00645447      67.00645447      67.00645447      67.00645447      66.32443237      66.32443237      66.26735687      66.26735687      66.26735687      66.26735687      66.26735687      66.26735687      66.26735687      66.26735687      66.26735687      66.26735687      65.70725250      65.70725250      65.70725250      65.70725250      65.70725250      65.70725250      65.70725250      65.70725250      65.70725250      65.15328217      65.15328217      65.15328217      65.15328217      65.15328217      65.15328217      65.15328217      65.15328217      65.15328217      65.15328217      64.65097809      64.65097809      63.83684158      63.83684158      63.83684158      63.83684158      63.83684158      63.83684158      63.83684158      63.83684158      63.83684158      63.83684158      63.17837143      62.15637970      62.15637970      62.15637970      62.15637970      62.15637970      62.15637970      62.15637970      62.15637970      62.15637970      62.15637970      62.15637970      60.18175125      60.18175125      60.18175125      60.18175125      60.18175125      60.18175125      60.18175125      60.18175125      60.18175125      60.18175125      60.18175125      60.18175125      59.30734634      59.30734634      59.30734634      59.30734634      59.30734634      58.35778427      58.35778427      58.35778427      58.35778427      58.35778427      58.35778427      52.93722153      52.93722153      52.93722153      52.93722153      52.93722153      52.93722153      52.93722153      52.93722153      52.93722153      52.93722153      52.93722153      52.93722153      52.93722153      52.93722153      52.93722153      51.20437241      51.20437241      51.20437241      51.20437241      51.20437241      51.20437241      51.20437241      51.20437241      51.20437241      51.20437241      51.20437241      51.20437241      51.20437241      51.20437241      51.20437241      51.20437241      51.20437241      51.20437241      50.16458130      50.16458130      50.16458130      50.16458130      50.16458130      48.97345734      48.97345734      48.97345734      48.97345734      48.97345734      47.71946335      47.71946335      47.71946335      47.71946335      47.71946335      47.71946335      47.71946335      47.71946335      47.71946335      47.71946335      47.71946335      47.71946335      47.71946335      47.71946335      47.71946335      47.71946335      47.71946335      47.71946335      47.71946335      47.71946335      47.71946335      47.71946335      44.04087067      44.04087067      44.04087067      44.04087067      44.04087067      44.04087067      40.99962997      40.99962997      40.99962997      40.99962997      40.99962997      40.99962997
         102.49778748     102.49778748     101.72914124     101.72914124     101.72914124     101.72914124     101.72914124     101.72914124     101.72914124     101.72914124     101.09039307     101.09039307     101.09039307     101.09039307     101.09039307     101.09845734     101.09845734     101.09845734     101.09845734     101.13024139     101.13024139     101.13024139     101.13024139     101.17488098     101.17488098     101.17488098     101.22142792     101.22142792     101.22142792     101.22142792     101.25666046     101.25666046     101.25666046     101.25666046     101.25666046     101.25666046     101.25666046     101.25666046     101.25666046     101.25666046     101.25666046     101.25666046     101.25666046     101.28726959     101.28726959     101.28726959     101.28726959     101.28726959     101.28726959     101.28726959     101.28726959     101.28726959     101.23593903     101.23593903     101.23593903     101.23593903     101.23593903     101.23593903     101.23593903     101.23593903     101.23593903     101.23593903     101.23593903     101.02922058     101.02922058     101.02922058     101.02922058     101.02922058     101.02922058     101.02922058     100.70333862     100.70333862     100.70333862     100.70333862     100.70333862     100.70333862     100.61952209     100.61952209     100.49099731     100.49099731     100.33164215     100.33164215      99.61818695      99.61818695      99.61818695      99.61818695      99.61818695      99.61818695      99.48647308      99.48647308      99.29307556      99.29307556      99.06137085      99.06137085      98.80005646      98.80005646      98.51192474      97.70894623      97.70894623      97.70894623      97.70894623      97.70894623      97.52515411      97.52515411      97.26135254      97.26135254      96.95259857      96.95259857      96.61321259      96.61321259      96.25077057      96.25077057      95.87101746      95.87101746      95.48061371      95.48061371      95.09060669      95.09060669      94.72487640      94.72487640      94.44600677      94.44600677      94.44600677      94.44600677      94.44600677      92.82556915      92.22425842      92.22425842      91.63829041      91.63829041      91.07604218      91.07604218      90.56587982      90.56587982      90.18769073      90.18769073      90.18769073      90.18769073      90.18769073      90.18769073      87.50148010      87.50148010      87.03125000      87.03125000      87.03125000      87.03125000      87.03125000      87.03125000      83.85086823      83.85086823      83.31587219      83.31587219      83.31587219      83.31587219      83.31587219      83.31587219      83.31587219      80.09763336      80.09763336      80.09763336      80.09763336      80.09763336      80.09763336      80.09763336      75.64496613      75.64496613      75.64496613      75.64496613      75.64496613      75.64496613      75.64496613      75.64496613      71.40554810      71.40554810      70.97997284      70.97997284      70.97997284      70.97997284      70.97997284      70.97997284      70.97997284      70.97997284      70.97997284      68.26151276      67.95307159      67.95307159      67.70229340      67.70229340      67.49756622      67.49756622      67.32968903      67.32968903      67.19194031      67.19194031      67.08169556      67.08169556      67.00645447      67.00645447      67.00645447      67.00645447      67.00645447      67.00645447      67.00645447      67.00645447      67.00645447      66.40056610      66.32443237      66.32443237      66.26735687      66.26735687      66.26735687      66.26735687      66.26735687      66.26735687      66.26735687      66.26735687      66.26735687      66.26735687      65.70725250      65.70725250      65.70725250      65.70725250      65.70725250      65.70725250      65.70725250      65.70725250      65.70725250      65.15328217      65.15328217      65.15328217      65.15328217      65.15328217      65.15328217      65.15328217      65.15328217      65.15328217      65.15328217      64.65097809      63.83684158      63.83684158      63.83684158      63.83684158      63.83684158      63.83684158      63.83684158      63.83684158      63.83684158      63.83684158      63.83684158      63.17837143      62.15637970      62.15637970      62.15637970      62.15637970      62.15637970      62.15637970      62.15637970      62.15637970      62.15637970      62.15637970      62.15637970      60.18175125      60.18175125      60.18175125      60.18175125      60.18175125      60.18175125      60.18175125      60.18175125      60.18175125      60.18175125      60.18175125      60.18175125      59.30734634      59.30734634      59.30734634      59.30734634      59.30734634      58.35778427      58.35778427      58.35778427      58.35778427      58.35778427      52.93722153      52.93722153      52.93722153      52.93722153      52.93722153      52.93722153      52.93722153      52.93722153      52.93722153      52.93722153      52.93722153      52.93722153      52.93722153      52.93722153      52.93722153      51.20437241      51.20437241      51.20437241      51.20437241      51.20437241      51.20437241      51.20437241      51.20437241      51.20437241      51.20437241      51.20437241      51.20437241      51.20437241      51.20437241      51.20437241      51.20437241      51.20437241      51.20437241      51.20437241      50.16458130      50.16458130      50.16458130      50.16458130      50.16458130      48.97345734      48.97345734      48.97345734      48.97345734      48.97345734      47.71946335      47.71946335      47.71946335      47.71946335      47.71946335      47.71946335      47.71946335      47.71946335      47.71946335      47.71946335      47.71946335      47.71946335      47.71946335      47.71946335      47.71946335      47.71946335      47.71946335      47.71946335      47.71946335      47.71946335      47.71946335      47.71946335      44.04087067      44.04087067      44.04087067      44.04087067      44.04087067      40.99962997      40.99962997      40.99962997      40.99962997      40.99962997      40.99962997      40.99962997