# File generated by Flopy version 3.3.7 on 06/02/2023 at 13:54:39.
BEGIN options
END options

BEGIN dimensions
  MAXBOUND  817
END dimensions

BEGIN period  1
  1 100 130      64.86111069     608.03344931
  1 100 129      65.20601273    3283.93220378
  1 99 129      65.20601273     747.15005780
  1 99 128      65.48379135    3155.24751364
  1 98 128      65.41666794     887.02997739
  1 98 127      65.69444656    2940.79240828
  1 97 127      65.69444656    1575.69619474
  1 97 126      65.97222519    1774.22066417
  1 96 126      66.17429543    3354.26875212
  1 95 126      66.17429543     104.16983702
  1 95 125      66.33928108    3259.05059419
  1 94 125      66.43375778    1988.02086245
  1 94 124      66.71153259    1379.26454918
  1 93 124      66.71153259    3372.74593588
  1 92 124      66.85622787     509.47317491
  1 92 123      66.80555344    2871.11580904
  1 91 123      66.80555344    2404.78005428
  1 91 122      67.08333206     979.87391010
  1 90 122      67.35772705    3391.22311964
  1 89 122      67.35772705     919.21103690
  1 89 121      67.36111069    2478.74649978
  1 88 121      67.36111069    2481.67881760
  1 88 120      67.63888931    1707.75308536
  1 87 120      67.63888931    1758.64314865
  1 87 119      68.00349998    3371.27927673
  1 86 119      67.91666794     104.50916693
  1 86 118      68.19444656    3485.18065331
  1 86 117      68.47222328    1562.79034865
  1 85 117      68.47222328    1931.78251431
  1 85 116      68.74999809    3239.33755796
  1 84 116      69.16970444     264.62751466
  1 84 115      69.27825737    3513.35728227
  1 84 114      69.55603600    1415.26610023
  1 83 114      69.55603600    2107.48339169
  1 83 113      69.58333206    3104.83432746
  1 82 113      69.90387917     403.03066214
  1 82 112      70.18165779    3323.81481481
  1 82 111      70.22091866    2504.64711295
  1 81 111      70.22091866     827.98251668
  1 81 110      70.49869728    3341.44444444
  1 81 109      70.77647591    2099.11430297
  1 80 109      70.69444656    1251.14495629
  1 80 108      70.97222519    3359.07407407
  1 80 107      71.33168221    1689.17408558
  1 79 107      71.33168221    1678.71480331
  1 79 106      71.60945702    3165.98281083
  1 79 105      71.92509270    3027.46981287
  1 79 104      72.20287132    3035.35238259
  1 79 103      72.48064995    1643.13085047
  1 78 103      72.77784348    1400.10410184
  1 78 102      73.05562210    3051.11752203
  1 78 101      73.27247047    3059.00009175
  1 78 100      73.55024910    3066.88266147
  1 78 99      73.47222328    3074.76523119
  1 78 98      73.74999809    3082.64780091
  1 78 97      74.02777481    1889.41918843
  1 77 97      74.02777481    1201.11118220
  1 77 96      74.30555344    3098.39080681
  1 77 95      74.72652054    3105.58099715
  1 77 94      75.00429916    3113.46175371
  1 77 93      75.28207779    3121.34251028
  1 77 92      75.55985641    3129.22326684
  1 77 91      75.87856865    2272.45190515
  1 76 91      76.02254105     864.65211825
  1 76 90      76.30031967    3144.98477997
  1 76 89      76.48544502    3152.86553653
  1 76 88      76.76321983    3160.74629309
  1 76 87      77.04099655    3168.62704966
  1 76 86      77.31877518    3176.50780622
  1 76 85      77.36111069    2704.75239727
  1 75 85      77.36111069     479.63616551
  1 75 84      77.63888931    3192.26931935
  1 75 83      78.03428078    3200.15007591
  1 75 82      78.31205940    3208.03083247
  1 75 81      78.66096497    3215.91158904
  1 75 80      78.93873978    3203.57209964
  1 75 79      79.21651649    3206.76151615
  1 75 78      79.49429512    3163.00179909
  1 74 78      79.66846657      51.57972424
  1 74 77      79.92510796    3222.40153051
  1 74 76      80.20288658    3230.22153769
  1 74 75      80.48066521    3238.04154487
  1 74 74      80.75844383    3245.86155205
  1 74 73      81.00948524    3253.68155923
  1 74 72      81.28726387    3261.50156641
  1 74 71      81.44495010    3269.32157359
  1 74 70      81.72272491    3277.14158077
  1 74 69      81.80555344    3284.96158796
  1 74 68      82.08333206    1867.95477654
  1 73 68      82.08333206    1424.82681860
  1 73 67      82.53008080    3300.60160232
  1 73 66      82.80785942    3371.00656386
  1 73 65      83.16426659    3435.06507999
  1 73 64      83.44204521    3443.16528398
  1 73 63      83.71982193     781.08997651
  1 72 63      83.73203087    2670.17551147
  1 72 62      84.00980568    3459.36569198
  1 72 61      84.19929123    3467.46589597
  1 72 60      84.47706985    2307.14985673
  1 71 60      84.47706985    1168.41624323
  1 71 59      84.85476685    4087.27953308
  1 71 58      85.13254547    1231.28923179
  1 70 58      85.09891319    3130.18885094
  1 70 57      85.13888931    2116.87166199
  1 69 57      85.13888931    2254.72418266
  1 69 56      85.41666794    3006.54011143
  1 68 56      85.72250938    1375.17349513
  1 68 55      85.93792152    3900.29458011
  1 67 55      85.93792152     491.53678837
  1 67 54      86.21570015    4401.94913040
  1 67 53      86.49347687     397.09656036
  1 66 53      86.25000191    4014.97033195
  1 66 52      86.52777672    1290.94831521
  1 65 52      86.52777672    3131.23633902
  1 65 51      87.57427979     302.82811539
  1 100 256      30.23768806    1303.42908891
  1 100 255      30.18157244    1484.45736066
  1 99 255      30.18157244     915.86520797
  1 99 254      30.45935011    1885.63518481
  1 98 254      30.84633255     524.94204234
  1 98 253      30.73473740    2290.17229364
  1 97 253      30.73473740     130.65959203
  1 97 252      31.01251507    2431.08654418
  1 97 251      31.29029322     268.10831049
  1 96 251      31.62269497    2173.23289221
  1 96 250      31.90047359     670.78897252
  1 95 250      31.90047359    1780.80688870
  1 95 249      31.80555630    1508.04485122
  1 94 249      32.39508533     594.86955936
  1 94 248      32.67286205    1996.45412710
  1 94 247      32.36111069    2004.73571459
  1 94 246      32.63888931     876.00636477
  1 93 246      32.63888931    1137.01093732
  1 93 245      32.96713161    2021.29888958
  1 93 244      33.24490833    2029.58047707
  1 93 243      33.52268600     345.51096921
  1 92 243      33.86405849    1692.35109534
  1 92 242      34.14183712    2046.14365205
  1 92 241      34.02777767    1857.03772137
  1 91 241      34.02777767     197.38751816
  1 91 240      34.30555439    2062.70682703
  1 91 239      34.65301037    2070.98841452
  1 91 238      34.93078899    1983.02362066
  1 91 237      35.20856762    1031.95689105
  1 90 237      35.62878513     946.80179243
  1 90 236      35.90656376    1986.60867543
  1 90 235      36.11489010    1994.45866737
  1 90 234      36.39266682    2002.30865931
  1 90 233      36.67044449    2010.15865126
  1 90 232      36.94822311    2018.00864320
  1 90 231      36.80555630    2025.85863514
  1 90 230      37.08333302    1714.30629613
  1 89 230      37.08333302     319.40233096
  1 89 229      37.36111069    2041.55861903
  1 89 228      37.63888931    2049.40861098
  1 89 227      38.00275326    2057.25860292
  1 89 226      38.28052998    2066.40828749
  1 89 225      38.55830765    2081.36042389
  1 89 224      38.83608627    2089.24223236
  1 89 223      39.13697720    1274.47503336
  1 88 223      39.44990540     822.64900748
  1 88 222      39.72768211    2105.00584931
  1 88 221      39.94469452    2112.88765779
  1 88 220      40.22247314    2120.76946626
  1 88 219      40.13888931    2128.65127474
  1 88 218      40.41666794    2136.53308322
  1 88 217      40.77158833    1504.25376913
  1 87 217      40.77158833     640.16112256
  1 87 216      41.04936504    2152.29670017
  1 87 215      41.32714272    2160.17850864
  1 87 214      41.60492134    2174.46525492
  1 87 213      41.93997288    2323.79124155
  1 87 212      42.21774960     191.93642177
  1 86 212      42.42026997    2140.27217485
  1 86 211      42.58977795    2340.62595170
  1 86 210      42.86755657    1172.08993154
  1 85 210      42.86755657    1176.95337524
  1 85 209      42.91666698    2357.46066186
  1 85 208      43.19444370    2166.27236644
  1 84 208      43.58854485     199.60565050
  1 84 207      43.47222137    2374.29537202
  1 84 206      43.75000000    2382.71272710
  1 84 205      44.12929249     794.56807079
  1 83 205      44.12929249    1597.91031557
  1 83 204      44.40706921    2435.85429328
  1 83 203      44.68484688    1436.19566957
  1 82 203      44.84113121    1008.20333935
  1 82 202      45.11890984    2452.94372456
  1 82 201      45.24224281    1934.29023068
  1 81 201      45.24224281     527.19820951
  1 81 200      45.52002144    2470.03315583
  1 81 199      45.79779911    2439.16163524
  1 80 199      46.01781464      39.41623623
  1 80 198      46.29559135    2487.12258710
  1 80 197      46.25000000    2495.66730274
  1 80 196      46.52777863     456.70090676
  1 79 196      46.52777863    2047.51111162
  1 79 195      46.80555630    2512.75673401
  1 79 194      47.08333302     959.73077777
  1 78 194      47.27929497    1561.57067188
  1 78 193      47.36111069    2529.84616529
  1 78 192      47.63888931    1469.53749221
  1 77 192      47.63888931    1068.85338871
  1 77 191      48.08090496    2546.93559656
  1 77 190      48.35868168    1986.12105009
  1 76 190      48.33364964     569.35926210
  1 76 189      48.47222137    2952.23752487
  1 76 188      48.75000000     560.10312736
  1 75 188      48.75000000    2734.99230735
  1 74 188      48.88920593    1237.17753176
  1 74 187      49.21649647    1502.78972384
  1 73 187      49.21649647    2744.07650482
  1 72 187      49.02777767     300.46055075
  1 72 186      49.30555439    2451.70548430
  1 71 186      49.30555439    2110.67510805
  1 71 185      49.76749516     644.60550899
  1 70 185      49.76749516    2762.24489974
  1 69 185      49.76749516    1170.58399655
  1 69 184      50.04527378    1561.48517174
  1 68 184      49.86111069    2663.76217760
  1 67 184      49.86111069     902.03921691
  1 67 183      50.32693386    1767.49774913
  1 66 183      50.13888931    2672.49377921
  1 65 183      50.13888931     798.09627891
  1 65 182      50.41666794    1880.52155281
  1 64 182      50.68149185    2681.22538083
  1 63 182      50.68149185     693.45481278
  1 63 181      50.88684845    1994.24388462
  1 62 181      50.88684845    2689.95698244
  1 61 181      50.88684845     588.11481852
  1 61 180      51.16462517    2108.66474456
  1 60 180      50.97222233    2698.68858405
  1 59 180      50.97222233     482.07629613
  1 59 179      51.55486012    2223.78413262
  1 58 179      51.25000000    2707.42018566
  1 57 179      51.25000000     375.33924561
  1 57 178      51.52777863    2436.03303808
  1 56 178      51.90780830    1729.13052063
  1 56 177      51.80555630    1613.20618667
  1 55 177      51.80555630    1910.89416685
  1 55 176      52.08333302    1441.60588778
  1 54 176      52.44014072    2093.78707388
  1 54 175      52.63949108    1268.87632808
  1 53 175      52.63949108    2277.80924172
  1 53 174      52.91726971    1095.01750756
  1 52 174      52.63888931    2462.96067038
  1 52 173      53.25646210     920.02942622
  1 51 173      53.25646210    2649.24135985
  1 51 172      53.53423882     743.91208408
  1 50 172      53.50068474    2825.52296691
  1 49 172      53.50068474    1255.27074041
  1 49 171      54.00300694    1540.99103309
  1 48 171      53.47222137    2800.22072605
  1 47 171      53.47222137     939.20446712
  1 47 170      53.75000000    1866.86719709
  1 46 170      53.75000000    2809.02447412
  1 45 170      53.75000000     621.12590856
  1 45 169      54.69214439    2194.75564635
  1 44 169      54.02777767    2817.82822219
  1 43 169      54.02777767     301.03506473
  1 43 168      54.30555439    2524.65638089
  1 42 168      55.52727127     719.82553280
END period  1

