# File generated by Flopy version 3.3.7 on 06/02/2023 at 13:54:41.
BEGIN options
  auxiliary  depth
  AUXDEPTHNAME  depth
END options

BEGIN dimensions
  MAXBOUND  48848
END dimensions

BEGIN period  1
  1 1 3     106.29911804  100000.00000000       1.00000000
  1 1 4     106.28823280  100000.00000000       1.00000000
  1 1 5     106.26752281  100000.00000000       1.00000000
  1 1 6     106.23663902  100000.00000000       1.00000000
  1 1 7     106.19558144  100000.00000000       1.00000000
  1 1 8     106.14430809  100000.00000000       1.00000000
  1 1 9     106.08325005  100000.00000000       1.00000000
  1 1 10     106.01167297  100000.00000000       1.00000000
  1 1 11     105.93089294  100000.00000000       1.00000000
  1 1 12     105.84035301  100000.00000000       1.00000000
  1 1 13     105.74005318  100000.00000000       1.00000000
  1 1 14     105.62943840  100000.00000000       1.00000000
  1 1 15     105.50980949  100000.00000000       1.00000000
  1 1 16     105.38037682  100000.00000000       1.00000000
  1 1 17     105.24160194  100000.00000000       1.00000000
  1 1 18     105.09336662  100000.00000000       1.00000000
  1 1 19     104.93567085  100000.00000000       1.00000000
  1 1 20     104.76850128  100000.00000000       1.00000000
  1 1 21     104.59213257  100000.00000000       1.00000000
  1 1 22     104.40654945  100000.00000000       1.00000000
  1 1 23     104.21180916  100000.00000000       1.00000000
  1 1 24     104.00814819  100000.00000000       1.00000000
  1 1 25     103.79538345  100000.00000000       1.00000000
  1 1 26     103.57438278  100000.00000000       1.00000000
  1 1 27     103.34399796  100000.00000000       1.00000000
  1 1 28     103.10504723  100000.00000000       1.00000000
  1 1 29     102.85753059  100000.00000000       1.00000000
  1 1 30     102.60285568  100000.00000000       1.00000000
  1 1 31     102.33875656  100000.00000000       1.00000000
  1 1 32     102.06669044  100000.00000000       1.00000000
  1 1 33     101.78665733  100000.00000000       1.00000000
  1 1 34     101.50071526  100000.00000000       1.00000000
  1 1 35     101.20548820  100000.00000000       1.00000000
  1 1 36     100.90308762  100000.00000000       1.00000000
  1 1 37     100.59351349  100000.00000000       1.00000000
  1 1 38     100.27941132  100000.00000000       1.00000000
  1 1 39      99.95643234  100000.00000000       1.00000000
  1 1 40      99.62727165  100000.00000000       1.00000000
  1 1 41      99.29192924  100000.00000000       1.00000000
  1 1 42      98.95316887  100000.00000000       1.00000000
  1 1 43      98.60592461  100000.00000000       1.00000000
  1 1 44      98.25437546  100000.00000000       1.00000000
  1 1 45      97.89584351  100000.00000000       1.00000000
  1 1 46      97.53225136  100000.00000000       1.00000000
  1 1 47      97.16359901  100000.00000000       1.00000000
  1 1 48      96.79185104  100000.00000000       1.00000000
  1 1 49      96.41432190  100000.00000000       1.00000000
  1 1 50      96.03550529  100000.00000000       1.00000000
  1 1 51      95.65036583  100000.00000000       1.00000000
  1 1 52      95.26315117  100000.00000000       1.00000000
  1 1 53      94.87168312  100000.00000000       1.00000000
  1 1 54      94.47767448  100000.00000000       1.00000000
  1 1 55      94.08112526  100000.00000000       1.00000000
  1 1 56      93.68355942  100000.00000000       1.00000000
  1 1 57      93.28313446  100000.00000000       1.00000000
  1 1 58      92.88205338  100000.00000000       1.00000000
  1 1 59      92.47888184  100000.00000000       1.00000000
  1 1 60      92.07555771  100000.00000000       1.00000000
  1 1 61      91.67066193  100000.00000000       1.00000000
  1 1 62      91.26535988  100000.00000000       1.00000000
  1 1 63      90.85965157  100000.00000000       1.00000000
  1 1 64      90.45388031  100000.00000000       1.00000000
  1 1 65      90.04813385  100000.00000000       1.00000000
  1 1 66      89.64238739  100000.00000000       1.00000000
  1 1 67      89.23725891  100000.00000000       1.00000000
  1 1 68      88.83213234  100000.00000000       1.00000000
  1 1 69      88.42814064  100000.00000000       1.00000000
  1 1 70      88.02310562  100000.00000000       1.00000000
  1 1 71      87.62064743  100000.00000000       1.00000000
  1 1 72      87.21792030  100000.00000000       1.00000000
  1 1 73      86.81727791  100000.00000000       1.00000000
  1 1 74      86.41763687  100000.00000000       1.00000000
  1 1 75      86.01899719  100000.00000000       1.00000000
  1 1 76      85.62010574  100000.00000000       1.00000000
  1 1 77      85.22356796  100000.00000000       1.00000000
  1 1 78      84.82671547  100000.00000000       1.00000000
  1 1 79      84.43231392  100000.00000000       1.00000000
  1 1 80      84.03611946  100000.00000000       1.00000000
  1 1 81      83.64382744  100000.00000000       1.00000000
  1 1 82      83.25116348  100000.00000000       1.00000000
  1 1 83      82.86091232  100000.00000000       1.00000000
  1 1 84      82.47162247  100000.00000000       1.00000000
  1 1 85      82.08329391  100000.00000000       1.00000000
  1 1 86      81.69328690  100000.00000000       1.00000000
  1 1 87      81.30672455  100000.00000000       1.00000000
  1 1 88      80.91983414  100000.00000000       1.00000000
  1 1 89      80.53485107  100000.00000000       1.00000000
  1 1 90      80.15053558  100000.00000000       1.00000000
  1 1 91      79.76688766  100000.00000000       1.00000000
  1 1 92      79.38279915  100000.00000000       1.00000000
  1 1 93      79.00021172  100000.00000000       1.00000000
  1 1 94      78.61660957  100000.00000000       1.00000000
  1 1 95      78.23477745  100000.00000000       1.00000000
  1 1 96      77.85313988  100000.00000000       1.00000000
  1 1 97      77.47169685  100000.00000000       1.00000000
  1 1 98      77.08979225  100000.00000000       1.00000000
  1 1 99      76.70834541  100000.00000000       1.00000000
  1 1 100      76.32688141  100000.00000000       1.00000000
  1 1 101      75.94499588  100000.00000000       1.00000000
  1 1 102      75.56320000  100000.00000000       1.00000000
  1 1 103      75.18041039  100000.00000000       1.00000000
  1 1 104      74.79692650  100000.00000000       1.00000000
  1 1 105      74.41274834  100000.00000000       1.00000000
  1 1 106      74.02990150  100000.00000000       1.00000000
  1 1 107      73.64382744  100000.00000000       1.00000000
  1 1 108      73.25837708  100000.00000000       1.00000000
  1 1 109      72.86988449  100000.00000000       1.00000000
  1 1 110      72.48227310  100000.00000000       1.00000000
  1 1 111      72.09078598  100000.00000000       1.00000000
  1 1 112      71.69748116  100000.00000000       1.00000000
  1 1 113      71.30235863  100000.00000000       1.00000000
  1 1 114      70.90806580  100000.00000000       1.00000000
  1 1 115      70.50858688  100000.00000000       1.00000000
  1 1 116      70.11029816  100000.00000000       1.00000000
  1 1 117      69.70570755  100000.00000000       1.00000000
  1 1 118      69.30289268  100000.00000000       1.00000000
  1 1 119      68.89260674  100000.00000000       1.00000000
  1 1 120      68.49180412  100000.00000000       1.00000000
  1 1 121      68.07590294  100000.00000000       1.00000000
  1 1 122      67.65799141  100000.00000000       1.00000000
  1 1 123      67.23806953  100000.00000000       1.00000000
  1 1 124      66.82529449  100000.00000000       1.00000000
  1 1 125      66.40504456  100000.00000000       1.00000000
  1 1 126      65.99880600  100000.00000000       1.00000000
  1 1 127      65.58100128  100000.00000000       1.00000000
  1 1 128      65.17104149  100000.00000000       1.00000000
  1 1 129      64.75901604  100000.00000000       1.00000000
  1 1 132      63.94941711  100000.00000000       1.00000000
  1 1 133      64.18289948  100000.00000000       1.00000000
  1 1 134      64.34979057  100000.00000000       1.00000000
  1 1 135      64.45009041  100000.00000000       1.00000000
  1 1 136      64.48464394  100000.00000000       1.00000000
  1 1 137      64.52498055  100000.00000000       1.00000000
  1 1 138      64.54480934  100000.00000000       1.00000000
  1 1 139      64.54413033  100000.00000000       1.00000000
  1 1 140      64.52508354  100000.00000000       1.00000000
  1 1 141      64.48945427  100000.00000000       1.00000000
  1 1 142      64.44042969  100000.00000000       1.00000000
  1 1 143      64.37272263  100000.00000000       1.00000000
  1 1 144      64.29006958  100000.00000000       1.00000000
  1 1 145      64.19247055  100000.00000000       1.00000000
  1 1 146      64.08266640  100000.00000000       1.00000000
  1 1 147      63.95727730  100000.00000000       1.00000000
  1 1 148      63.82280922  100000.00000000       1.00000000
  1 1 149      63.67167091  100000.00000000       1.00000000
  1 1 150      63.50860214  100000.00000000       1.00000000
  1 1 151      63.33360291  100000.00000000       1.00000000
  1 1 152      63.15239525  100000.00000000       1.00000000
  1 1 153      62.95523453  100000.00000000       1.00000000
  1 1 154      62.74776077  100000.00000000       1.00000000
  1 1 155      62.52997398  100000.00000000       1.00000000
  1 1 156      62.30548763  100000.00000000       1.00000000
  1 1 157      62.06843090  100000.00000000       1.00000000
  1 1 158      61.82561493  100000.00000000       1.00000000
  1 1 159      61.57046509  100000.00000000       1.00000000
  1 1 160      61.31419277  100000.00000000       1.00000000
  1 1 161      61.04197598  100000.00000000       1.00000000
  1 1 162      60.76170921  100000.00000000       1.00000000
  1 1 163      60.47339249  100000.00000000       1.00000000
  1 1 164      60.18538475  100000.00000000       1.00000000
  1 1 165      59.88197517  100000.00000000       1.00000000
  1 1 166      59.57547283  100000.00000000       1.00000000
  1 1 167      59.25809002  100000.00000000       1.00000000
  1 1 168      58.93819904  100000.00000000       1.00000000
  1 1 169      58.60811901  100000.00000000       1.00000000
  1 1 170      58.27241039  100000.00000000       1.00000000
  1 1 171      57.93107319  100000.00000000       1.00000000
  1 1 172      57.58871269  100000.00000000       1.00000000
  1 1 173      57.23769951  100000.00000000       1.00000000
  1 1 174      56.89043522  100000.00000000       1.00000000
  1 1 175      56.53141117  100000.00000000       1.00000000
  1 1 176      56.17324257  100000.00000000       1.00000000
  1 1 177      55.80791473  100000.00000000       1.00000000
  1 1 178      55.44440460  100000.00000000       1.00000000
  1 1 179      55.07450104  100000.00000000       1.00000000
  1 1 180      54.70318890  100000.00000000       1.00000000
  1 1 181      54.33046818  100000.00000000       1.00000000
  1 1 182      53.96588039  100000.00000000       1.00000000
  1 1 183      53.59208202  100000.00000000       1.00000000
  1 1 184      53.21854496  100000.00000000       1.00000000
  1 1 185      52.84526920  100000.00000000       1.00000000
  1 1 186      52.48266792  100000.00000000       1.00000000
  1 1 187      52.11121178  100000.00000000       1.00000000
  1 1 188      51.74113274  100000.00000000       1.00000000
  1 1 189      51.37243080  100000.00000000       1.00000000
  1 1 190      51.01064491  100000.00000000       1.00000000
  1 1 191      50.64528275  100000.00000000       1.00000000
  1 1 192      50.29242516  100000.00000000       1.00000000
  1 1 193      49.93071747  100000.00000000       1.00000000
  1 1 194      49.57611370  100000.00000000       1.00000000
  1 1 195      49.21816349  100000.00000000       1.00000000
  1 1 196      48.86712742  100000.00000000       1.00000000
  1 1 197      48.51289845  100000.00000000       1.00000000
  1 1 198      48.16046429  100000.00000000       1.00000000
  1 1 199      47.80982494  100000.00000000       1.00000000
  1 1 200      47.46573925  100000.00000000       1.00000000
  1 1 201      47.11852932  100000.00000000       1.00000000
  1 1 202      46.77753448  100000.00000000       1.00000000
  1 1 203      46.43359184  100000.00000000       1.00000000
  1 1 204      46.09548664  100000.00000000       1.00000000
  1 1 205      45.75466251  100000.00000000       1.00000000
  1 1 206      45.42272568  100000.00000000       1.00000000
  1 1 207      45.08490181  100000.00000000       1.00000000
  1 1 208      44.75147247  100000.00000000       1.00000000
  1 1 209      44.41652870  100000.00000000       1.00000000
  1 1 210      44.08297157  100000.00000000       1.00000000
  1 1 211      43.75080109  100000.00000000       1.00000000
  1 1 212      43.42235756  100000.00000000       1.00000000
  1 1 213      43.09288979  100000.00000000       1.00000000
  1 1 214      42.76789761  100000.00000000       1.00000000
  1 1 215      42.44119740  100000.00000000       1.00000000
  1 1 216      42.11598778  100000.00000000       1.00000000
  1 1 217      41.79226875  100000.00000000       1.00000000
  1 1 218      41.47106457  100000.00000000       1.00000000
  1 1 219      41.15046024  100000.00000000       1.00000000
  1 1 220      40.83285522  100000.00000000       1.00000000
  1 1 221      40.51507568  100000.00000000       1.00000000
  1 1 222      40.19836521  100000.00000000       1.00000000
  1 1 223      39.88272381  100000.00000000       1.00000000
  1 1 224      39.56849289  100000.00000000       1.00000000
  1 1 225      39.25423241  100000.00000000       1.00000000
  1 1 226      38.94145298  100000.00000000       1.00000000
  1 1 227      38.62812901  100000.00000000       1.00000000
  1 1 228      38.31546688  100000.00000000       1.00000000
  1 1 229      38.00319386  100000.00000000       1.00000000
  1 1 230      37.69168949  100000.00000000       1.00000000
  1 1 231      37.38095379  100000.00000000       1.00000000
  1 1 232      37.07108116  100000.00000000       1.00000000
  1 1 233      36.76201248  100000.00000000       1.00000000
  1 1 234      36.45485210  100000.00000000       1.00000000
  1 1 235      36.14674854  100000.00000000       1.00000000
  1 1 236      35.84027481  100000.00000000       1.00000000
  1 1 237      35.53189278  100000.00000000       1.00000000
  1 1 238      35.22534466  100000.00000000       1.00000000
  1 1 239      34.91542721  100000.00000000       1.00000000
  1 1 240      34.60778332  100000.00000000       1.00000000
  1 1 241      34.29552555  100000.00000000       1.00000000
  1 1 242      33.98195553  100000.00000000       1.00000000
  1 1 243      33.66707325  100000.00000000       1.00000000
  1 1 244      33.35975742  100000.00000000       1.00000000
  1 1 245      33.04185772  100000.00000000       1.00000000
  1 1 246      32.72756195  100000.00000000       1.00000000
  1 1 247      32.40666008  100000.00000000       1.00000000
  1 1 248      32.08847427  100000.00000000       1.00000000
  1 1 249      31.76240730  100000.00000000       1.00000000
  1 1 250      31.43435049  100000.00000000       1.00000000
  1 1 251      31.10430384  100000.00000000       1.00000000
  1 1 252      30.77014685  100000.00000000       1.00000000
  1 1 253      30.42404699  100000.00000000       1.00000000
  1 1 254      30.08461952  100000.00000000       1.00000000
  1 1 255      29.72147465  100000.00000000       1.00000000
  1 1 258      28.80555582  100000.00000000       1.00000000
  1 1 259      29.19816828  100000.00000000       1.00000000
  1 1 260      29.53186035  100000.00000000       1.00000000
  1 1 261      29.81723022  100000.00000000       1.00000000
  1 1 262      30.05706787  100000.00000000       1.00000000
  1 1 263      30.25137329  100000.00000000       1.00000000
  1 1 264      30.40541029  100000.00000000       1.00000000
  1 1 265      30.58534479  100000.00000000       1.00000000
  1 1 266      30.74936342  100000.00000000       1.00000000
  1 1 267      30.89746618  100000.00000000       1.00000000
  1 1 268      31.03756094  100000.00000000       1.00000000
  1 1 269      31.14391375  100000.00000000       1.00000000
  1 1 270      31.23896980  100000.00000000       1.00000000
  1 1 271      31.30482292  100000.00000000       1.00000000
  1 1 272      31.35305738  100000.00000000       1.00000000
  1 1 273      31.37964392  100000.00000000       1.00000000
  1 1 274      31.38719511  100000.00000000       1.00000000
  1 1 275      31.37571096  100000.00000000       1.00000000
  1 1 276      31.34479332  100000.00000000       1.00000000
  1 1 277      31.29612923  100000.00000000       1.00000000
  1 1 278      31.22594929  100000.00000000       1.00000000
  1 1 279      31.14145088  100000.00000000       1.00000000
  1 1 280      31.04005098  100000.00000000       1.00000000
  1 1 281      30.92174959  100000.00000000       1.00000000
  1 1 282      30.78221464  100000.00000000       1.00000000
  1 1 283      30.63265657  100000.00000000       1.00000000
  1 1 284      30.45230150  100000.00000000       1.00000000
  1 1 285      30.27444220  100000.00000000       1.00000000
  1 1 286      30.07320261  100000.00000000       1.00000000
  1 1 287      29.87063169  100000.00000000       1.00000000
  1 1 288      29.65804148  100000.00000000       1.00000000
  1 1 289      29.43543196  100000.00000000       1.00000000
  1 1 290      29.19332027  100000.00000000       1.00000000
  1 1 291      28.95658493  100000.00000000       1.00000000
  1 1 292      28.70336723  100000.00000000       1.00000000
  1 1 293      28.45861816  100000.00000000       1.00000000
  1 1 294      28.19372797  100000.00000000       1.00000000
  1 1 295      27.94498968  100000.00000000       1.00000000
  1 1 296      27.68950748  100000.00000000       1.00000000
  1 1 297      27.43872166  100000.00000000       1.00000000
  1 1 298      27.18301249  100000.00000000       1.00000000
  1 1 299      26.93086672  100000.00000000       1.00000000
  1 1 300      26.67487717  100000.00000000       1.00000000
  1 1 301      26.42151165  100000.00000000       1.00000000
  1 1 302      26.16500425  100000.00000000       1.00000000
  1 1 303      25.91041327  100000.00000000       1.00000000
  1 1 304      25.65523148  100000.00000000       1.00000000
  1 1 305      25.39945889  100000.00000000       1.00000000
  1 1 306      25.13958025  100000.00000000       1.00000000
  1 1 307      24.88280725  100000.00000000       1.00000000
  1 1 308      24.62571335  100000.00000000       1.00000000
  1 1 309      24.36829853  100000.00000000       1.00000000
  1 1 310      24.10960913  100000.00000000       1.00000000
  1 1 311      23.85212469  100000.00000000       1.00000000
  1 1 312      23.59358549  100000.00000000       1.00000000
  1 1 313      23.33684969  100000.00000000       1.00000000
  1 1 314      23.08104467  100000.00000000       1.00000000
  1 1 315      22.82617044  100000.00000000       1.00000000
  1 1 316      22.57288074  100000.00000000       1.00000000
  1 1 317      22.32131577  100000.00000000       1.00000000
  1 1 318      22.07446480  100000.00000000       1.00000000
  1 1 319      21.82798290  100000.00000000       1.00000000
  1 1 320      21.58503437  100000.00000000       1.00000000
  1 1 321      21.34561920  100000.00000000       1.00000000
  1 1 322      21.11384010  100000.00000000       1.00000000
  1 1 323      20.88329983  100000.00000000       1.00000000
  1 1 324      20.67222595  100000.00000000       1.00000000
  1 1 325      20.45142078  100000.00000000       1.00000000
  1 1 326      20.24709702  100000.00000000       1.00000000
  1 1 327      20.03490829  100000.00000000       1.00000000
  1 1 328      19.82537413  100000.00000000       1.00000000
  1 1 329      19.61849451  100000.00000000       1.00000000
  1 1 330      19.42611742  100000.00000000       1.00000000
  1 1 331      19.22150660  100000.00000000       1.00000000
  1 1 332      19.04424906  100000.00000000       1.00000000
  1 1 333      18.84010363  100000.00000000       1.00000000
  1 1 334      18.63568115  100000.00000000       1.00000000
  1 1 335      18.43098164  100000.00000000       1.00000000
  1 1 336      18.25388622  100000.00000000       1.00000000
  1 1 337      18.04788494  100000.00000000       1.00000000
  1 1 338      17.85542011  100000.00000000       1.00000000
  1 1 339      17.64788246  100000.00000000       1.00000000
  1 1 340      17.43978548  100000.00000000       1.00000000
  1 1 341      17.23112917  100000.00000000       1.00000000
  1 1 342      17.05169249  100000.00000000       1.00000000
  1 1 343      16.84281683  100000.00000000       1.00000000
  1 1 344      16.63445616  100000.00000000       1.00000000
  1 1 345      16.42661047  100000.00000000       1.00000000
  1 1 346      16.23530746  100000.00000000       1.00000000
  1 1 347      16.03025031  100000.00000000       1.00000000
  1 1 348      15.84321809  100000.00000000       1.00000000
  1 1 349      15.64339471  100000.00000000       1.00000000
  1 1 350      15.47971106  100000.00000000       1.00000000
  1 1 351      15.28863955  100000.00000000       1.00000000
  1 1 352      15.10513330  100000.00000000       1.00000000
  1 1 353      14.92919230  100000.00000000       1.00000000
  1 1 354      14.79702592  100000.00000000       1.00000000
  1 1 355      14.64646363  100000.00000000       1.00000000
  1 1 356      14.51350141  100000.00000000       1.00000000
  1 1 357      14.39813924  100000.00000000       1.00000000
  1 1 358      14.32291508  100000.00000000       1.00000000
  1 1 359      14.26136303  100000.00000000       1.00000000
  1 1 360      14.43202114  100000.00000000       1.00000000
  1 1 361      14.43202114  100000.00000000       1.00000000
  1 2 3     106.29739380  100000.00000000       1.00000000
  1 2 4     106.28737068  100000.00000000       1.00000000
  1 2 5     106.26646233  100000.00000000       1.00000000
  1 2 6     106.23557854  100000.00000000       1.00000000
  1 2 7     106.19408989  100000.00000000       1.00000000
  1 2 8     106.14281654  100000.00000000       1.00000000
  1 2 9     106.08114815  100000.00000000       1.00000000
  1 2 10     106.00957108  100000.00000000       1.00000000
  1 2 11     105.92808533  100000.00000000       1.00000000
  1 2 12     105.83754539  100000.00000000       1.00000000
  1 2 13     105.73655510  100000.00000000       1.00000000
  1 2 14     105.62594032  100000.00000000       1.00000000
  1 2 15     105.50570107  100000.00000000       1.00000000
  1 2 16     105.37626839  100000.00000000       1.00000000
  1 2 17     105.23703194  100000.00000000       1.00000000
  1 2 18     105.08879662  100000.00000000       1.00000000
  1 2 19     104.93082619  100000.00000000       1.00000000
  1 2 20     104.76365662  100000.00000000       1.00000000
  1 2 21     104.58723068  100000.00000000       1.00000000
  1 2 22     104.40164757  100000.00000000       1.00000000
  1 2 23     104.20709038  100000.00000000       1.00000000
  1 2 24     104.00342941  100000.00000000       1.00000000
  1 2 25     103.79110336  100000.00000000       1.00000000
  1 2 26     103.57010269  100000.00000000       1.00000000
  1 2 27     103.34042740  100000.00000000       1.00000000
  1 2 28     103.10147667  100000.00000000       1.00000000
  1 2 29     102.85495186  100000.00000000       1.00000000
  1 2 30     102.60027695  100000.00000000       1.00000000
  1 2 31     102.33745193  100000.00000000       1.00000000
  1 2 32     102.06538582  100000.00000000       1.00000000
  1 2 33     101.78690529  100000.00000000       1.00000000
  1 2 34     101.50096321  100000.00000000       1.00000000
  1 2 35     101.20755959  100000.00000000       1.00000000
  1 2 36     100.90515900  100000.00000000       1.00000000
  1 2 37     100.59764862  100000.00000000       1.00000000
  1 2 38     100.28354645  100000.00000000       1.00000000
  1 2 39      99.96285248  100000.00000000       1.00000000
  1 2 40      99.63369179  100000.00000000       1.00000000
  1 2 41      99.30080605  100000.00000000       1.00000000
  1 2 42      98.96204567  100000.00000000       1.00000000
  1 2 43      98.61741066  100000.00000000       1.00000000
  1 2 44      98.26586151  100000.00000000       1.00000000
  1 2 45      97.91000748  100000.00000000       1.00000000
  1 2 46      97.54641533  100000.00000000       1.00000000
  1 2 47      97.18044853  100000.00000000       1.00000000
  1 2 48      96.80870056  100000.00000000       1.00000000
  1 2 49      96.43377304  100000.00000000       1.00000000
  1 2 50      96.05495644  100000.00000000       1.00000000
  1 2 51      95.67225075  100000.00000000       1.00000000
  1 2 52      95.28503609  100000.00000000       1.00000000
  1 2 53      94.89574623  100000.00000000       1.00000000
  1 2 54      94.50173759  100000.00000000       1.00000000
  1 2 55      94.10703087  100000.00000000       1.00000000
  1 2 56      93.70946503  100000.00000000       1.00000000
  1 2 57      93.31047440  100000.00000000       1.00000000
  1 2 58      92.90939331  100000.00000000       1.00000000
  1 2 59      92.50718689  100000.00000000       1.00000000
  1 2 60      92.10386276  100000.00000000       1.00000000
  1 2 61      91.69942093  100000.00000000       1.00000000
  1 2 62      91.29411888  100000.00000000       1.00000000
  1 2 63      90.88832283  100000.00000000       1.00000000
  1 2 64      90.48255157  100000.00000000       1.00000000
  1 2 65      90.07618713  100000.00000000       1.00000000
  1 2 66      89.67044067  100000.00000000       1.00000000
  1 2 67      89.26417923  100000.00000000       1.00000000
  1 2 68      88.85905266  100000.00000000       1.00000000
  1 2 69      88.45345497  100000.00000000       1.00000000
  1 2 70      88.04841995  100000.00000000       1.00000000
  1 2 71      87.64394760  100000.00000000       1.00000000
  1 2 72      87.24122047  100000.00000000       1.00000000
  1 2 73      86.83822441  100000.00000000       1.00000000
  1 2 74      86.43858337  100000.00000000       1.00000000
  1 2 75      86.03733826  100000.00000000       1.00000000
  1 2 76      85.63844681  100000.00000000       1.00000000
  1 2 77      85.23914337  100000.00000000       1.00000000
  1 2 78      84.84229088  100000.00000000       1.00000000
  1 2 79      84.44504356  100000.00000000       1.00000000
  1 2 80      84.04884911  100000.00000000       1.00000000
  1 2 81      83.65370750  100000.00000000       1.00000000
  1 2 82      83.26104355  100000.00000000       1.00000000
  1 2 83      82.86800766  100000.00000000       1.00000000
  1 2 84      82.47871780  100000.00000000       1.00000000
  1 2 85      82.08773422  100000.00000000       1.00000000
  1 2 86      81.69772720  100000.00000000       1.00000000
  1 2 87      81.30869675  100000.00000000       1.00000000
  1 2 88      80.92180634  100000.00000000       1.00000000
  1 2 89      80.53458786  100000.00000000       1.00000000
  1 2 90      80.15027237  100000.00000000       1.00000000
  1 2 91      79.76468277  100000.00000000       1.00000000
  1 2 92      79.38059425  100000.00000000       1.00000000
  1 2 93      78.99641609  100000.00000000       1.00000000
  1 2 94      78.61281395  100000.00000000       1.00000000
  1 2 95      78.22978783  100000.00000000       1.00000000
  1 2 96      77.84815025  100000.00000000       1.00000000
  1 2 97      77.46598244  100000.00000000       1.00000000
  1 2 98      77.08407784  100000.00000000       1.00000000
  1 2 99      76.70243645  100000.00000000       1.00000000
  1 2 100      76.32097244  100000.00000000       1.00000000
  1 2 101      75.93949127  100000.00000000       1.00000000
  1 2 102      75.55769539  100000.00000000       1.00000000
  1 2 103      75.17598915  100000.00000000       1.00000000
  1 2 104      74.79250526  100000.00000000       1.00000000
  1 2 105      74.41017723  100000.00000000       1.00000000
  1 2 106      74.02733040  100000.00000000       1.00000000
  1 2 107      73.64396477  100000.00000000       1.00000000
  1 2 108      73.25851440  100000.00000000       1.00000000
  1 2 109      72.87368774  100000.00000000       1.00000000
  1 2 110      72.48607635  100000.00000000       1.00000000
  1 2 111      72.09934616  100000.00000000       1.00000000
  1 2 112      71.70604134  100000.00000000       1.00000000
  1 2 113      71.31693459  100000.00000000       1.00000000
  1 2 114      70.92264175  100000.00000000       1.00000000
  1 2 115      70.53065491  100000.00000000       1.00000000
  1 2 116      70.13236618  100000.00000000       1.00000000
  1 2 117      69.73702240  100000.00000000       1.00000000
  1 2 118      69.33420753  100000.00000000       1.00000000
  1 2 119      68.93518639  100000.00000000       1.00000000
  1 2 120      68.53438377  100000.00000000       1.00000000
  1 2 121      68.13179970  100000.00000000       1.00000000
  1 2 122      67.71388817  100000.00000000       1.00000000
  1 2 123      67.30858803  100000.00000000       1.00000000
  1 2 124      66.89581299  100000.00000000       1.00000000
  1 2 125      66.48933792  100000.00000000       1.00000000
  1 2 126      66.08309937  100000.00000000       1.00000000
  1 2 127      65.67709732  100000.00000000       1.00000000
  1 2 128      65.26713753  100000.00000000       1.00000000
  1 2 129      64.86502266  100000.00000000       1.00000000
  1 2 130      64.52012062  100000.00000000       1.00000000
  1 2 133      63.95936584  100000.00000000       1.00000000
  1 2 134      64.12625694  100000.00000000       1.00000000
  1 2 135      64.16936302  100000.00000000       1.00000000
  1 2 136      64.20391655  100000.00000000       1.00000000
  1 2 137      64.22991753  100000.00000000       1.00000000
  1 2 138      64.24974632  100000.00000000       1.00000000
  1 2 139      64.24728203  100000.00000000       1.00000000
  1 2 140      64.22823524  100000.00000000       1.00000000