# File generated by Flopy version 3.3.7 on 06/02/2023 at 13:54:37.
BEGIN options
  auxiliary  ANGLDEGX  CDIST
  NEWTON
END options

BEGIN dimensions
  NEXG  1795
END dimensions

BEGIN exchangedata
  1 100 3  1 1 3  1     250.00000000     250.00000000     500.00000000     270.00000000     500.00000000
  2 100 3  2 1 3  1     250.00000000     250.00000000     500.00000000     270.00000000     500.00000000
  3 100 3  3 1 3  1     250.00000000     250.00000000     500.00000000     270.00000000     500.00000000
  4 100 3  4 1 3  1     250.00000000     250.00000000     500.00000000     270.00000000     500.00000000
  5 100 3  5 1 3  1     250.00000000     250.00000000     500.00000000     270.00000000     500.00000000
  1 100 4  1 1 4  1     250.00000000     250.00000000     500.00000000     270.00000000     500.00000000
  2 100 4  2 1 4  1     250.00000000     250.00000000     500.00000000     270.00000000     500.00000000
  3 100 4  3 1 4  1     250.00000000     250.00000000     500.00000000     270.00000000     500.00000000
  4 100 4  4 1 4  1     250.00000000     250.00000000     500.00000000     270.00000000     500.00000000
  5 100 4  5 1 4  1     250.00000000     250.00000000     500.00000000     270.00000000     500.00000000
  1 100 5  1 1 5  1     250.00000000     250.00000000     500.00000000     270.00000000     500.00000000
  2 100 5  2 1 5  1     250.00000000     250.00000000     500.00000000     270.00000000     500.00000000
  3 100 5  3 1 5  1     250.00000000     250.00000000     500.00000000     270.00000000     500.00000000
  4 100 5  4 1 5  1     250.00000000     250.00000000     500.00000000     270.00000000     500.00000000
  5 100 5  5 1 5  1     250.00000000     250.00000000     500.00000000     270.00000000     500.00000000
  1 100 6  1 1 6  1     250.00000000     250.00000000     500.00000000     270.00000000     500.00000000
  2 100 6  2 1 6  1     250.00000000     250.00000000     500.00000000     270.00000000     500.00000000
  3 100 6  3 1 6  1     250.00000000     250.00000000     500.00000000     270.00000000     500.00000000
  4 100 6  4 1 6  1     250.00000000     250.00000000     500.00000000     270.00000000     500.00000000
  5 100 6  5 1 6  1     250.00000000     250.00000000     500.00000000     270.00000000     500.00000000
  1 100 7  1 1 7  1     250.00000000     250.00000000     500.00000000     270.00000000     500.00000000
  2 100 7  2 1 7  1     250.00000000     250.00000000     500.00000000     270.00000000     500.00000000
  3 100 7  3 1 7  1     250.00000000     250.00000000     500.00000000     270.00000000     500.00000000
  4 100 7  4 1 7  1     250.00000000     250.00000000     500.00000000     270.00000000     500.00000000
  5 100 7  5 1 7  1     250.00000000     250.00000000     500.00000000     270.00000000     500.00000000
  1 100 8  1 1 8  1     250.00000000     250.00000000     500.00000000     270.00000000     500.00000000
  2 100 8  2 1 8  1     250.00000000     250.00000000     500.00000000     270.00000000     500.00000000
  3 100 8  3 1 8  1     250.00000000     250.00000000     500.00000000     270.00000000     500.00000000
  4 100 8  4 1 8  1     250.00000000     250.00000000     500.00000000     270.00000000     500.00000000
  5 100 8  5 1 8  1     250.00000000     250.00000000     500.00000000     270.00000000     500.00000000
  1 100 9  1 1 9  1     250.00000000     250.00000000     500.00000000     270.00000000     500.00000000
  2 100 9  2 1 9  1     250.00000000     250.00000000     500.00000000     270.00000000     500.00000000
  3 100 9  3 1 9  1     250.00000000     250.00000000     500.00000000     270.00000000     500.00000000
  4 100 9  4 1 9  1     250.00000000     250.00000000     500.00000000     270.00000000     500.00000000
  5 100 9  5 1 9  1     250.00000000     250.00000000     500.00000000     270.00000000     500.00000000
  1 100 10  1 1 10  1     250.00000000     250.00000000     500.00000000     270.00000000     500.00000000
  2 100 10  2 1 10  1     250.00000000     250.00000000     500.00000000     270.00000000     500.00000000
  3 100 10  3 1 10  1     250.00000000     250.00000000     500.00000000     270.00000000     500.00000000
  4 100 10  4 1 10  1     250.00000000     250.00000000     500.00000000     270.00000000     500.00000000
  5 100 10  5 1 10  1     250.00000000     250.00000000     500.00000000     270.00000000     500.00000000
  1 100 11  1 1 11  1     250.00000000     250.00000000     500.00000000     270.00000000     500.00000000
  2 100 11  2 1 11  1     250.00000000     250.00000000     500.00000000     270.00000000     500.00000000
  3 100 11  3 1 11  1     250.00000000     250.00000000     500.00000000     270.00000000     500.00000000
  4 100 11  4 1 11  1     250.00000000     250.00000000     500.00000000     270.00000000     500.00000000
  5 100 11  5 1 11  1     250.00000000     250.00000000     500.00000000     270.00000000     500.00000000
  1 100 12  1 1 12  1     250.00000000     250.00000000     500.00000000     270.00000000     500.00000000
  2 100 12  2 1 12  1     250.00000000     250.00000000     500.00000000     270.00000000     500.00000000
  3 100 12  3 1 12  1     250.00000000     250.00000000     500.00000000     270.00000000     500.00000000
  4 100 12  4 1 12  1     250.00000000     250.00000000     500.00000000     270.00000000     500.00000000
  5 100 12  5 1 12  1     250.00000000     250.00000000     500.00000000     270.00000000     500.00000000
  1 100 13  1 1 13  1     250.00000000     250.00000000     500.00000000     270.00000000     500.00000000
  2 100 13  2 1 13  1     250.00000000     250.00000000     500.00000000     270.00000000     500.00000000
  3 100 13  3 1 13  1     250.00000000     250.00000000     500.00000000     270.00000000     500.00000000
  4 100 13  4 1 13  1     250.00000000     250.00000000     500.00000000     270.00000000     500.00000000
  5 100 13  5 1 13  1     250.00000000     250.00000000     500.00000000     270.00000000     500.00000000
  1 100 14  1 1 14  1     250.00000000     250.00000000     500.00000000     270.00000000     500.00000000
  2 100 14  2 1 14  1     250.00000000     250.00000000     500.00000000     270.00000000     500.00000000
  3 100 14  3 1 14  1     250.00000000     250.00000000     500.00000000     270.00000000     500.00000000
  4 100 14  4 1 14  1     250.00000000     250.00000000     500.00000000     270.00000000     500.00000000
  5 100 14  5 1 14  1     250.00000000     250.00000000     500.00000000     270.00000000     500.00000000
  1 100 15  1 1 15  1     250.00000000     250.00000000     500.00000000     270.00000000     500.00000000
  2 100 15  2 1 15  1     250.00000000     250.00000000     500.00000000     270.00000000     500.00000000
  3 100 15  3 1 15  1     250.00000000     250.00000000     500.00000000     270.00000000     500.00000000
  4 100 15  4 1 15  1     250.00000000     250.00000000     500.00000000     270.00000000     500.00000000
  5 100 15  5 1 15  1     250.00000000     250.00000000     500.00000000     270.00000000     500.00000000
  1 100 16  1 1 16  1     250.00000000     250.00000000     500.00000000     270.00000000     500.00000000
  2 100 16  2 1 16  1     250.00000000     250.00000000     500.00000000     270.00000000     500.00000000
  3 100 16  3 1 16  1     250.00000000     250.00000000     500.00000000     270.00000000     500.00000000
  4 100 16  4 1 16  1     250.00000000     250.00000000     500.00000000     270.00000000     500.00000000
  5 100 16  5 1 16  1     250.00000000     250.00000000     500.00000000     270.00000000     500.00000000
  1 100 17  1 1 17  1     250.00000000     250.00000000     500.00000000     270.00000000     500.00000000
  2 100 17  2 1 17  1     250.00000000     250.00000000     500.00000000     270.00000000     500.00000000
  3 100 17  3 1 17  1     250.00000000     250.00000000     500.00000000     270.00000000     500.00000000
  4 100 17  4 1 17  1     250.00000000     250.00000000     500.00000000     270.00000000     500.00000000
  5 100 17  5 1 17  1     250.00000000     250.00000000     500.00000000     270.00000000     500.00000000
  1 100 18  1 1 18  1     250.00000000     250.00000000     500.00000000     270.00000000     500.00000000
  2 100 18  2 1 18  1     250.00000000     250.00000000     500.00000000     270.00000000     500.00000000
  3 100 18  3 1 18  1     250.00000000     250.00000000     500.00000000     270.00000000     500.00000000
  4 100 18  4 1 18  1     250.00000000     250.00000000     500.00000000     270.00000000     500.00000000
  5 100 18  5 1 18  1     250.00000000     250.00000000     500.00000000     270.00000000     500.00000000
  1 100 19  1 1 19  1     250.00000000     250.00000000     500.00000000     270.00000000     500.00000000
  2 100 19  2 1 19  1     250.00000000     250.00000000     500.00000000     270.00000000     500.00000000
  3 100 19  3 1 19  1     250.00000000     250.00000000     500.00000000     270.00000000     500.00000000
  4 100 19  4 1 19  1     250.00000000     250.00000000     500.00000000     270.00000000     500.00000000
  5 100 19  5 1 19  1     250.00000000     250.00000000     500.00000000     270.00000000     500.00000000
  1 100 20  1 1 20  1     250.00000000     250.00000000     500.00000000     270.00000000     500.00000000
  2 100 20  2 1 20  1     250.00000000     250.00000000     500.00000000     270.00000000     500.00000000
  3 100 20  3 1 20  1     250.00000000     250.00000000     500.00000000     270.00000000     500.00000000
  4 100 20  4 1 20  1     250.00000000     250.00000000     500.00000000     270.00000000     500.00000000
  5 100 20  5 1 20  1     250.00000000     250.00000000     500.00000000     270.00000000     500.00000000
  1 100 21  1 1 21  1     250.00000000     250.00000000     500.00000000     270.00000000     500.00000000
  2 100 21  2 1 21  1     250.00000000     250.00000000     500.00000000     270.00000000     500.00000000
  3 100 21  3 1 21  1     250.00000000     250.00000000     500.00000000     270.00000000     500.00000000
  4 100 21  4 1 21  1     250.00000000     250.00000000     500.00000000     270.00000000     500.00000000
  5 100 21  5 1 21  1     250.00000000     250.00000000     500.00000000     270.00000000     500.00000000
  1 100 22  1 1 22  1     250.00000000     250.00000000     500.00000000     270.00000000     500.00000000
  2 100 22  2 1 22  1     250.00000000     250.00000000     500.00000000     270.00000000     500.00000000
  3 100 22  3 1 22  1     250.00000000     250.00000000     500.00000000     270.00000000     500.00000000
  4 100 22  4 1 22  1     250.00000000     250.00000000     500.00000000     270.00000000     500.00000000
  5 100 22  5 1 22  1     250.00000000     250.00000000     500.00000000     270.00000000     500.00000000
  1 100 23  1 1 23  1     250.00000000     250.00000000     500.00000000     270.00000000     500.00000000
  2 100 23  2 1 23  1     250.00000000     250.00000000     500.00000000     270.00000000     500.00000000
  3 100 23  3 1 23  1     250.00000000     250.00000000     500.00000000     270.00000000     500.00000000
  4 100 23  4 1 23  1     250.00000000     250.00000000     500.00000000     270.00000000     500.00000000
  5 100 23  5 1 23  1     250.00000000     250.00000000     500.00000000     270.00000000     500.00000000
  1 100 24  1 1 24  1     250.00000000     250.00000000     500.00000000     270.00000000     500.00000000
  2 100 24  2 1 24  1     250.00000000     250.00000000     500.00000000     270.00000000     500.00000000
  3 100 24  3 1 24  1     250.00000000     250.00000000     500.00000000     270.00000000     500.00000000
  4 100 24  4 1 24  1     250.00000000     250.00000000     500.00000000     270.00000000     500.00000000
  5 100 24  5 1 24  1     250.00000000     250.00000000     500.00000000     270.00000000     500.00000000
  1 100 25  1 1 25  1     250.00000000     250.00000000     500.00000000     270.00000000     500.00000000
  2 100 25  2 1 25  1     250.00000000     250.00000000     500.00000000     270.00000000     500.00000000
  3 100 25  3 1 25  1     250.00000000     250.00000000     500.00000000     270.00000000     500.00000000
  4 100 25  4 1 25  1     250.00000000     250.00000000     500.00000000     270.00000000     500.00000000
  5 100 25  5 1 25  1     250.00000000     250.00000000     500.00000000     270.00000000     500.00000000
  1 100 26  1 1 26  1     250.00000000     250.00000000     500.00000000     270.00000000     500.00000000
  2 100 26  2 1 26  1     250.00000000     250.00000000     500.00000000     270.00000000     500.00000000
  3 100 26  3 1 26  1     250.00000000     250.00000000     500.00000000     270.00000000     500.00000000
  4 100 26  4 1 26  1     250.00000000     250.00000000     500.00000000     270.00000000     500.00000000
  5 100 26  5 1 26  1     250.00000000     250.00000000     500.00000000     270.00000000     500.00000000
  1 100 27  1 1 27  1     250.00000000     250.00000000     500.00000000     270.00000000     500.00000000
  2 100 27  2 1 27  1     250.00000000     250.00000000     500.00000000     270.00000000     500.00000000
  3 100 27  3 1 27  1     250.00000000     250.00000000     500.00000000     270.00000000     500.00000000
  4 100 27  4 1 27  1     250.00000000     250.00000000     500.00000000     270.00000000     500.00000000
  5 100 27  5 1 27  1     250.00000000     250.00000000     500.00000000     270.00000000     500.00000000
  1 100 28  1 1 28  1     250.00000000     250.00000000     500.00000000     270.00000000     500.00000000
  2 100 28  2 1 28  1     250.00000000     250.00000000     500.00000000     270.00000000     500.00000000
  3 100 28  3 1 28  1     250.00000000     250.00000000     500.00000000     270.00000000     500.00000000
  4 100 28  4 1 28  1     250.00000000     250.00000000     500.00000000     270.00000000     500.00000000
  5 100 28  5 1 28  1     250.00000000     250.00000000     500.00000000     270.00000000     500.00000000
  1 100 29  1 1 29  1     250.00000000     250.00000000     500.00000000     270.00000000     500.00000000
  2 100 29  2 1 29  1     250.00000000     250.00000000     500.00000000     270.00000000     500.00000000
  3 100 29  3 1 29  1     250.00000000     250.00000000     500.00000000     270.00000000     500.00000000
  4 100 29  4 1 29  1     250.00000000     250.00000000     500.00000000     270.00000000     500.00000000
  5 100 29  5 1 29  1     250.00000000     250.00000000     500.00000000     270.00000000     500.00000000
  1 100 30  1 1 30  1     250.00000000     250.00000000     500.00000000     270.00000000     500.00000000
  2 100 30  2 1 30  1     250.00000000     250.00000000     500.00000000     270.00000000     500.00000000
  3 100 30  3 1 30  1     250.00000000     250.00000000     500.00000000     270.00000000     500.00000000
  4 100 30  4 1 30  1     250.00000000     250.00000000     500.00000000     270.00000000     500.00000000
  5 100 30  5 1 30  1     250.00000000     250.00000000     500.00000000     270.00000000     500.00000000
  1 100 31  1 1 31  1     250.00000000     250.00000000     500.00000000     270.00000000     500.00000000
  2 100 31  2 1 31  1     250.00000000     250.00000000     500.00000000     270.00000000     500.00000000
  3 100 31  3 1 31  1     250.00000000     250.00000000     500.00000000     270.00000000     500.00000000
  4 100 31  4 1 31  1     250.00000000     250.00000000     500.00000000     270.00000000     500.00000000
  5 100 31  5 1 31  1     250.00000000     250.00000000     500.00000000     270.00000000     500.00000000
  1 100 32  1 1 32  1     250.00000000     250.00000000     500.00000000     270.00000000     500.00000000
  2 100 32  2 1 32  1     250.00000000     250.00000000     500.00000000     270.00000000     500.00000000
  3 100 32  3 1 32  1     250.00000000     250.00000000     500.00000000     270.00000000     500.00000000
  4 100 32  4 1 32  1     250.00000000     250.00000000     500.00000000     270.00000000     500.00000000
  5 100 32  5 1 32  1     250.00000000     250.00000000     500.00000000     270.00000000     500.00000000
  1 100 33  1 1 33  1     250.00000000     250.00000000     500.00000000     270.00000000     500.00000000
  2 100 33  2 1 33  1     250.00000000     250.00000000     500.00000000     270.00000000     500.00000000
  3 100 33  3 1 33  1     250.00000000     250.00000000     500.00000000     270.00000000     500.00000000
  4 100 33  4 1 33  1     250.00000000     250.00000000     500.00000000     270.00000000     500.00000000
  5 100 33  5 1 33  1     250.00000000     250.00000000     500.00000000     270.00000000     500.00000000
  1 100 34  1 1 34  1     250.00000000     250.00000000     500.00000000     270.00000000     500.00000000
  2 100 34  2 1 34  1     250.00000000     250.00000000     500.00000000     270.00000000     500.00000000
  3 100 34  3 1 34  1     250.00000000     250.00000000     500.00000000     270.00000000     500.00000000
  4 100 34  4 1 34  1     250.00000000     250.00000000     500.00000000     270.00000000     500.00000000
  5 100 34  5 1 34  1     250.00000000     250.00000000     500.00000000     270.00000000     500.00000000
  1 100 35  1 1 35  1     250.00000000     250.00000000     500.00000000     270.00000000     500.00000000
  2 100 35  2 1 35  1     250.00000000     250.00000000     500.00000000     270.00000000     500.00000000
  3 100 35  3 1 35  1     250.00000000     250.00000000     500.00000000     270.00000000     500.00000000
  4 100 35  4 1 35  1     250.00000000     250.00000000     500.00000000     270.00000000     500.00000000
  5 100 35  5 1 35  1     250.00000000     250.00000000     500.00000000     270.00000000     500.00000000
  1 100 36  1 1 36  1     250.00000000     250.00000000     500.00000000     270.00000000     500.00000000
  2 100 36  2 1 36  1     250.00000000     250.00000000     500.00000000     270.00000000     500.00000000
  3 100 36  3 1 36  1     250.00000000     250.00000000     500.00000000     270.00000000     500.00000000
  4 100 36  4 1 36  1     250.00000000     250.00000000     500.00000000     270.00000000     500.00000000
  5 100 36  5 1 36  1     250.00000000     250.00000000     500.00000000     270.00000000     500.00000000
  1 100 37  1 1 37  1     250.00000000     250.00000000     500.00000000     270.00000000     500.00000000
  2 100 37  2 1 37  1     250.00000000     250.00000000     500.00000000     270.00000000     500.00000000
  3 100 37  3 1 37  1     250.00000000     250.00000000     500.00000000     270.00000000     500.00000000
  4 100 37  4 1 37  1     250.00000000     250.00000000     500.00000000     270.00000000     500.00000000
  5 100 37  5 1 37  1     250.00000000     250.00000000     500.00000000     270.00000000     500.00000000
  1 100 38  1 1 38  1     250.00000000     250.00000000     500.00000000     270.00000000     500.00000000
  2 100 38  2 1 38  1     250.00000000     250.00000000     500.00000000     270.00000000     500.00000000
  3 100 38  3 1 38  1     250.00000000     250.00000000     500.00000000     270.00000000     500.00000000
  4 100 38  4 1 38  1     250.00000000     250.00000000     500.00000000     270.00000000     500.00000000
  5 100 38  5 1 38  1     250.00000000     250.00000000     500.00000000     270.00000000     500.00000000
  1 100 39  1 1 39  1     250.00000000     250.00000000     500.00000000     270.00000000     500.00000000
  2 100 39  2 1 39  1     250.00000000     250.00000000     500.00000000     270.00000000     500.00000000
  3 100 39  3 1 39  1     250.00000000     250.00000000     500.00000000     270.00000000     500.00000000
  4 100 39  4 1 39  1     250.00000000     250.00000000     500.00000000     270.00000000     500.00000000
  5 100 39  5 1 39  1     250.00000000     250.00000000     500.00000000     270.00000000     500.00000000
  1 100 40  1 1 40  1     250.00000000     250.00000000     500.00000000     270.00000000     500.00000000
  2 100 40  2 1 40  1     250.00000000     250.00000000     500.00000000     270.00000000     500.00000000
  3 100 40  3 1 40  1     250.00000000     250.00000000     500.00000000     270.00000000     500.00000000
  4 100 40  4 1 40  1     250.00000000     250.00000000     500.00000000     270.00000000     500.00000000
  5 100 40  5 1 40  1     250.00000000     250.00000000     500.00000000     270.00000000     500.00000000
  1 100 41  1 1 41  1     250.00000000     250.00000000     500.00000000     270.00000000     500.00000000
  2 100 41  2 1 41  1     250.00000000     250.00000000     500.00000000     270.00000000     500.00000000
  3 100 41  3 1 41  1     250.00000000     250.00000000     500.00000000     270.00000000     500.00000000
  4 100 41  4 1 41  1     250.00000000     250.00000000     500.00000000     270.00000000     500.00000000
  5 100 41  5 1 41  1     250.00000000     250.00000000     500.00000000     270.00000000     500.00000000
  1 100 42  1 1 42  1     250.00000000     250.00000000     500.00000000     270.00000000     500.00000000
  2 100 42  2 1 42  1     250.00000000     250.00000000     500.00000000     270.00000000     500.00000000
  3 100 42  3 1 42  1     250.00000000     250.00000000     500.00000000     270.00000000     500.00000000
  4 100 42  4 1 42  1     250.00000000     250.00000000     500.00000000     270.00000000     500.00000000
  5 100 42  5 1 42  1     250.00000000     250.00000000     500.00000000     270.00000000     500.00000000
  1 100 43  1 1 43  1     250.00000000     250.00000000     500.00000000     270.00000000     500.00000000
  2 100 43  2 1 43  1     250.00000000     250.00000000     500.00000000     270.00000000     500.00000000
  3 100 43  3 1 43  1     250.00000000     250.00000000     500.00000000     270.00000000     500.00000000
  4 100 43  4 1 43  1     250.00000000     250.00000000     500.00000000     270.00000000     500.00000000
  5 100 43  5 1 43  1     250.00000000     250.00000000     500.00000000     270.00000000     500.00000000
  1 100 44  1 1 44  1     250.00000000     250.00000000     500.00000000     270.00000000     500.00000000
  2 100 44  2 1 44  1     250.00000000     250.00000000     500.00000000     270.00000000     500.00000000
  3 100 44  3 1 44  1     250.00000000     250.00000000     500.00000000     270.00000000     500.00000000
  4 100 44  4 1 44  1     250.00000000     250.00000000     500.00000000     270.00000000     500.00000000
  5 100 44  5 1 44  1     250.00000000     250.00000000     500.00000000     270.00000000     500.00000000
  1 100 45  1 1 45  1     250.00000000     250.00000000     500.00000000     270.00000000     500.00000000
  2 100 45  2 1 45  1     250.00000000     250.00000000     500.00000000     270.00000000     500.00000000
  3 100 45  3 1 45  1     250.00000000     250.00000000     500.00000000     270.00000000     500.00000000
  4 100 45  4 1 45  1     250.00000000     250.00000000     500.00000000     270.00000000     500.00000000
  5 100 45  5 1 45  1     250.00000000     250.00000000     500.00000000     270.00000000     500.00000000
  1 100 46  1 1 46  1     250.00000000     250.00000000     500.00000000     270.00000000     500.00000000
  2 100 46  2 1 46  1     250.00000000     250.00000000     500.00000000     270.00000000     500.00000000
  3 100 46  3 1 46  1     250.00000000     250.00000000     500.00000000     270.00000000     500.00000000
  4 100 46  4 1 46  1     250.00000000     250.00000000     500.00000000     270.00000000     500.00000000
  5 100 46  5 1 46  1     250.00000000     250.00000000     500.00000000     270.00000000     500.00000000
  1 100 47  1 1 47  1     250.00000000     250.00000000     500.00000000     270.00000000     500.00000000
  2 100 47  2 1 47  1     250.00000000     250.00000000     500.00000000     270.00000000     500.00000000
  3 100 47  3 1 47  1     250.00000000     250.00000000     500.00000000     270.00000000     500.00000000
  4 100 47  4 1 47  1     250.00000000     250.00000000     500.00000000     270.00000000     500.00000000
  5 100 47  5 1 47  1     250.00000000     250.00000000     500.00000000     270.00000000     500.00000000
  1 100 48  1 1 48  1     250.00000000     250.00000000     500.00000000     270.00000000     500.00000000
  2 100 48  2 1 48  1     250.00000000     250.00000000     500.00000000     270.00000000     500.00000000
  3 100 48  3 1 48  1     250.00000000     250.00000000     500.00000000     270.00000000     500.00000000
  4 100 48  4 1 48  1     250.00000000     250.00000000     500.00000000     270.00000000     500.00000000
  5 100 48  5 1 48  1     250.00000000     250.00000000     500.00000000     270.00000000     500.00000000
  1 100 49  1 1 49  1     250.00000000     250.00000000     500.00000000     270.00000000     500.00000000
  2 100 49  2 1 49  1     250.00000000     250.00000000     500.00000000     270.00000000     500.00000000
  3 100 49  3 1 49  1     250.00000000     250.00000000     500.00000000     270.00000000     500.00000000
  4 100 49  4 1 49  1     250.00000000     250.00000000     500.00000000     270.00000000     500.00000000
  5 100 49  5 1 49  1     250.00000000     250.00000000     500.00000000     270.00000000     500.00000000
  1 100 50  1 1 50  1     250.00000000     250.00000000     500.00000000     270.00000000     500.00000000
  2 100 50  2 1 50  1     250.00000000     250.00000000     500.00000000     270.00000000     500.00000000
  3 100 50  3 1 50  1     250.00000000     250.00000000     500.00000000     270.00000000     500.00000000
  4 100 50  4 1 50  1     250.00000000     250.00000000     500.00000000     270.00000000     500.00000000
  5 100 50  5 1 50  1     250.00000000     250.00000000     500.00000000     270.00000000     500.00000000
  1 100 51  1 1 51  1     250.00000000     250.00000000     500.00000000     270.00000000     500.00000000
  2 100 51  2 1 51  1     250.00000000     250.00000000     500.00000000     270.00000000     500.00000000
  3 100 51  3 1 51  1     250.00000000     250.00000000     500.00000000     270.00000000     500.00000000
  4 100 51  4 1 51  1     250.00000000     250.00000000     500.00000000     270.00000000     500.00000000
  5 100 51  5 1 51  1     250.00000000     250.00000000     500.00000000     270.00000000     500.00000000
  1 100 52  1 1 52  1     250.00000000     250.00000000     500.00000000     270.00000000     500.00000000
  2 100 52  2 1 52  1     250.00000000     250.00000000     500.00000000     270.00000000     500.00000000
  3 100 52  3 1 52  1     250.00000000     250.00000000     500.00000000     270.00000000     500.00000000
  4 100 52  4 1 52  1     250.00000000     250.00000000     500.00000000     270.00000000     500.00000000
  5 100 52  5 1 52  1     250.00000000     250.00000000     500.00000000     270.00000000     500.00000000
  1 100 53  1 1 53  1     250.00000000     250.00000000     500.00000000     270.00000000     500.00000000
  2 100 53  2 1 53  1     250.00000000     250.00000000     500.00000000     270.00000000     500.00000000
  3 100 53  3 1 53  1     250.00000000     250.00000000     500.00000000     270.00000000     500.00000000
  4 100 53  4 1 53  1     250.00000000     250.00000000     500.00000000     270.00000000     500.00000000
  5 100 53  5 1 53  1     250.00000000     250.00000000     500.00000000     270.00000000     500.00000000
  1 100 54  1 1 54  1     250.00000000     250.00000000     500.00000000     270.00000000     500.00000000
  2 100 54  2 1 54  1     250.00000000     250.00000000     500.00000000     270.00000000     500.00000000
  3 100 54  3 1 54  1     250.00000000     250.00000000     500.00000000     270.00000000     500.00000000
  4 100 54  4 1 54  1     250.00000000     250.00000000     500.00000000     270.00000000     500.00000000
  5 100 54  5 1 54  1     250.00000000     250.00000000     500.00000000     270.00000000     500.00000000
  1 100 55  1 1 55  1     250.00000000     250.00000000     500.00000000     270.00000000     500.00000000
  2 100 55  2 1 55  1     250.00000000     250.00000000     500.00000000     270.00000000     500.00000000
  3 100 55  3 1 55  1     250.00000000     250.00000000     500.00000000     270.00000000     500.00000000
  4 100 55  4 1 55  1     250.00000000     250.00000000     500.00000000     270.00000000     500.00000000
  5 100 55  5 1 55  1     250.00000000     250.00000000     500.00000000     270.00000000     500.00000000
  1 100 56  1 1 56  1     250.00000000     250.00000000     500.00000000     270.00000000     500.00000000
  2 100 56  2 1 56  1     250.00000000     250.00000000     500.00000000     270.00000000     500.00000000
  3 100 56  3 1 56  1     250.00000000     250.00000000     500.00000000     270.00000000     500.00000000
  4 100 56  4 1 56  1     250.00000000     250.00000000     500.00000000     270.00000000     500.00000000
  5 100 56  5 1 56  1     250.00000000     250.00000000     500.00000000     270.00000000     500.00000000
  1 100 57  1 1 57  1     250.00000000     250.00000000     500.00000000     270.00000000     500.00000000
  2 100 57  2 1 57  1     250.00000000     250.00000000     500.00000000     270.00000000     500.00000000
  3 100 57  3 1 57  1     250.00000000     250.00000000     500.00000000     270.00000000     500.00000000
  4 100 57  4 1 57  1     250.00000000     250.00000000     500.00000000     270.00000000     500.00000000
  5 100 57  5 1 57  1     250.00000000     250.00000000     500.00000000     270.00000000     500.00000000
  1 100 58  1 1 58  1     250.00000000     250.00000000     500.00000000     270.00000000     500.00000000
  2 100 58  2 1 58  1     250.00000000     250.00000000     500.00000000     270.00000000     500.00000000
  3 100 58  3 1 58  1     250.00000000     250.00000000     500.00000000     270.00000000     500.00000000
  4 100 58  4 1 58  1     250.00000000     250.00000000     500.00000000     270.00000000     500.00000000