# File generated by Flopy version 3.3.7 on 06/01/2023 at 12:15:40.
BEGIN options
END options

BEGIN timing
  TDIS6  par_gwf01-2d.tdis
END timing

BEGIN models
  gwf6  leftmodel.nam  leftmodel
  gwf6  rightmodel.nam  rightmodel
END models

BEGIN exchanges
  GWF6-GWF6  par_gwf01-2d.gwfgwf  leftmodel  rightmodel
END exchanges

BEGIN solutiongroup  1
  ims6  par_gwf01-2d.ims  leftmodel  rightmodel
END solutiongroup  1

