# File generated by Flopy version 3.3.7 on 06/01/2023 at 12:15:40.
BEGIN options
END options

BEGIN dimensions
  MAXBOUND  5
END dimensions

BEGIN period  1
  1 1 5      10.00000000
  1 2 5      10.00000000
  1 3 5      10.00000000
  1 4 5      10.00000000
  1 5 5      10.00000000
END period  1

